INFO 09-12 02:12:07 [__init__.py:241] Automatically detected platform cuda.
The image processor of type `Qwen2VLImageProcessor` is now loaded as a fast processor by default, even if the model checkpoint was saved with a slow processor. This is a breaking change and may produce slightly different outputs. To continue using the slow processor, instantiate this class with `use_fast=False`. Note that this behavior will be extended to all models in a future release.
MathVista Judge Evaluation Script
==================================================
Judge model: /home/minyingqian/models/Qwen2.5-VL-7B-Instruct
Input file: MathVista_inferenced.jsonl
Output file: MathVista_judge_results.jsonl
Tensor parallel size: 4
Batch size: 20
Has images: True
INFO 09-12 02:12:09 [utils.py:326] non-default args: {'model': '/home/minyingqian/models/Qwen2.5-VL-7B-Instruct', 'trust_remote_code': True, 'tensor_parallel_size': 4, 'disable_log_stats': True, 'limit_mm_per_prompt': {'image': 10, 'video': 2}}
The argument `trust_remote_code` is to be used with Auto classes. It has no effect here and is ignored.
INFO 09-12 02:12:16 [__init__.py:711] Resolved architecture: Qwen2_5_VLForConditionalGeneration
`torch_dtype` is deprecated! Use `dtype` instead!
INFO 09-12 02:12:16 [__init__.py:1750] Using max model len 128000
INFO 09-12 02:12:16 [scheduler.py:222] Chunked prefill is enabled with max_num_batched_tokens=8192.
INFO 09-12 02:12:23 [__init__.py:241] Automatically detected platform cuda.
[1;36m(EngineCore_0 pid=3048708)[0;0m INFO 09-12 02:12:24 [core.py:636] Waiting for init message from front-end.
[1;36m(EngineCore_0 pid=3048708)[0;0m INFO 09-12 02:12:24 [core.py:74] Initializing a V1 LLM engine (v0.10.1.1) with config: model='/home/minyingqian/models/Qwen2.5-VL-7B-Instruct', speculative_config=None, tokenizer='/home/minyingqian/models/Qwen2.5-VL-7B-Instruct', skip_tokenizer_init=False, tokenizer_mode=auto, revision=None, override_neuron_config={}, tokenizer_revision=None, trust_remote_code=True, dtype=torch.bfloat16, max_seq_len=128000, download_dir=None, load_format=auto, tensor_parallel_size=4, pipeline_parallel_size=1, disable_custom_all_reduce=False, quantization=None, enforce_eager=False, kv_cache_dtype=auto, device_config=cuda, decoding_config=DecodingConfig(backend='auto', disable_fallback=False, disable_any_whitespace=False, disable_additional_properties=False, reasoning_backend=''), observability_config=ObservabilityConfig(show_hidden_metrics_for_version=None, otlp_traces_endpoint=None, collect_detailed_traces=None), seed=0, served_model_name=/home/minyingqian/models/Qwen2.5-VL-7B-Instruct, enable_prefix_caching=True, chunked_prefill_enabled=True, use_async_output_proc=True, pooler_config=None, compilation_config={"level":3,"debug_dump_path":"","cache_dir":"","backend":"","custom_ops":[],"splitting_ops":["vllm.unified_attention","vllm.unified_attention_with_output","vllm.mamba_mixer2"],"use_inductor":true,"compile_sizes":[],"inductor_compile_config":{"enable_auto_functionalized_v2":false},"inductor_passes":{},"cudagraph_mode":1,"use_cudagraph":true,"cudagraph_num_of_warmups":1,"cudagraph_capture_sizes":[512,504,496,488,480,472,464,456,448,440,432,424,416,408,400,392,384,376,368,360,352,344,336,328,320,312,304,296,288,280,272,264,256,248,240,232,224,216,208,200,192,184,176,168,160,152,144,136,128,120,112,104,96,88,80,72,64,56,48,40,32,24,16,8,4,2,1],"cudagraph_copy_inputs":false,"full_cuda_graph":false,"pass_config":{},"max_capture_size":512,"local_cache_dir":null}
[1;36m(EngineCore_0 pid=3048708)[0;0m WARNING 09-12 02:12:24 [multiproc_worker_utils.py:273] Reducing Torch parallelism from 48 threads to 1 to avoid unnecessary CPU contention. Set OMP_NUM_THREADS in the external environment to tune this value as needed.
[1;36m(EngineCore_0 pid=3048708)[0;0m INFO 09-12 02:12:24 [shm_broadcast.py:289] vLLM message queue communication handle: Handle(local_reader_ranks=[0, 1, 2, 3], buffer_handle=(4, 16777216, 10, 'psm_e3111918'), local_subscribe_addr='ipc:///tmp/6f5a7034-96bb-4137-8dbd-7fcda5b07f3d', remote_subscribe_addr=None, remote_addr_ipv6=False)
INFO 09-12 02:12:29 [__init__.py:241] Automatically detected platform cuda.
INFO 09-12 02:12:29 [__init__.py:241] Automatically detected platform cuda.
INFO 09-12 02:12:29 [__init__.py:241] Automatically detected platform cuda.
INFO 09-12 02:12:29 [__init__.py:241] Automatically detected platform cuda.
[1;36m(VllmWorker TP3 pid=3048868)[0;0m INFO 09-12 02:12:32 [shm_broadcast.py:289] vLLM message queue communication handle: Handle(local_reader_ranks=[0], buffer_handle=(1, 10485760, 10, 'psm_ca04c047'), local_subscribe_addr='ipc:///tmp/68ec0a5c-a18c-44cb-bcb8-8a4c00bbfadb', remote_subscribe_addr=None, remote_addr_ipv6=False)
[1;36m(VllmWorker TP0 pid=3048865)[0;0m INFO 09-12 02:12:32 [shm_broadcast.py:289] vLLM message queue communication handle: Handle(local_reader_ranks=[0], buffer_handle=(1, 10485760, 10, 'psm_25646446'), local_subscribe_addr='ipc:///tmp/892ca2cd-f959-4da8-98a0-0cf30a37d9ef', remote_subscribe_addr=None, remote_addr_ipv6=False)
[1;36m(VllmWorker TP1 pid=3048866)[0;0m INFO 09-12 02:12:32 [shm_broadcast.py:289] vLLM message queue communication handle: Handle(local_reader_ranks=[0], buffer_handle=(1, 10485760, 10, 'psm_84a5f12b'), local_subscribe_addr='ipc:///tmp/27b74420-1a55-40d9-8718-ff626f38b469', remote_subscribe_addr=None, remote_addr_ipv6=False)
[1;36m(VllmWorker TP2 pid=3048867)[0;0m INFO 09-12 02:12:33 [shm_broadcast.py:289] vLLM message queue communication handle: Handle(local_reader_ranks=[0], buffer_handle=(1, 10485760, 10, 'psm_6afeb0f4'), local_subscribe_addr='ipc:///tmp/94bda1b2-599d-49e5-899c-e29428138fda', remote_subscribe_addr=None, remote_addr_ipv6=False)
[1;36m(VllmWorker TP2 pid=3048867)[0;0m INFO 09-12 02:12:33 [__init__.py:1418] Found nccl from library libnccl.so.2
[1;36m(VllmWorker TP2 pid=3048867)[0;0m INFO 09-12 02:12:33 [pynccl.py:70] vLLM is using nccl==2.26.2
[1;36m(VllmWorker TP1 pid=3048866)[0;0m INFO 09-12 02:12:33 [__init__.py:1418] Found nccl from library libnccl.so.2
[1;36m(VllmWorker TP1 pid=3048866)[0;0m INFO 09-12 02:12:33 [pynccl.py:70] vLLM is using nccl==2.26.2
[1;36m(VllmWorker TP3 pid=3048868)[0;0m INFO 09-12 02:12:33 [__init__.py:1418] Found nccl from library libnccl.so.2
[1;36m(VllmWorker TP3 pid=3048868)[0;0m INFO 09-12 02:12:33 [pynccl.py:70] vLLM is using nccl==2.26.2
[1;36m(VllmWorker TP0 pid=3048865)[0;0m INFO 09-12 02:12:33 [__init__.py:1418] Found nccl from library libnccl.so.2
[1;36m(VllmWorker TP0 pid=3048865)[0;0m INFO 09-12 02:12:33 [pynccl.py:70] vLLM is using nccl==2.26.2
[1;36m(VllmWorker TP0 pid=3048865)[0;0m WARNING 09-12 02:12:34 [custom_all_reduce.py:137] Custom allreduce is disabled because it's not supported on more than two PCIe-only GPUs. To silence this warning, specify disable_custom_all_reduce=True explicitly.
[1;36m(VllmWorker TP2 pid=3048867)[0;0m WARNING 09-12 02:12:34 [custom_all_reduce.py:137] Custom allreduce is disabled because it's not supported on more than two PCIe-only GPUs. To silence this warning, specify disable_custom_all_reduce=True explicitly.
[1;36m(VllmWorker TP1 pid=3048866)[0;0m WARNING 09-12 02:12:34 [custom_all_reduce.py:137] Custom allreduce is disabled because it's not supported on more than two PCIe-only GPUs. To silence this warning, specify disable_custom_all_reduce=True explicitly.
[1;36m(VllmWorker TP3 pid=3048868)[0;0m WARNING 09-12 02:12:34 [custom_all_reduce.py:137] Custom allreduce is disabled because it's not supported on more than two PCIe-only GPUs. To silence this warning, specify disable_custom_all_reduce=True explicitly.
[1;36m(VllmWorker TP0 pid=3048865)[0;0m INFO 09-12 02:12:34 [shm_broadcast.py:289] vLLM message queue communication handle: Handle(local_reader_ranks=[1, 2, 3], buffer_handle=(3, 4194304, 6, 'psm_1cfd3f16'), local_subscribe_addr='ipc:///tmp/dcc02987-e995-4f82-822b-37017b985cfc', remote_subscribe_addr=None, remote_addr_ipv6=False)
[1;36m(VllmWorker TP2 pid=3048867)[0;0m INFO 09-12 02:12:34 [parallel_state.py:1134] rank 2 in world size 4 is assigned as DP rank 0, PP rank 0, TP rank 2, EP rank 2
[1;36m(VllmWorker TP0 pid=3048865)[0;0m INFO 09-12 02:12:34 [parallel_state.py:1134] rank 0 in world size 4 is assigned as DP rank 0, PP rank 0, TP rank 0, EP rank 0
[1;36m(VllmWorker TP3 pid=3048868)[0;0m INFO 09-12 02:12:34 [parallel_state.py:1134] rank 3 in world size 4 is assigned as DP rank 0, PP rank 0, TP rank 3, EP rank 3
[1;36m(VllmWorker TP1 pid=3048866)[0;0m INFO 09-12 02:12:34 [parallel_state.py:1134] rank 1 in world size 4 is assigned as DP rank 0, PP rank 0, TP rank 1, EP rank 1
[1;36m(VllmWorker TP2 pid=3048867)[0;0m WARNING 09-12 02:12:34 [topk_topp_sampler.py:61] FlashInfer is not available. Falling back to the PyTorch-native implementation of top-p & top-k sampling. For the best performance, please install FlashInfer.
[1;36m(VllmWorker TP1 pid=3048866)[0;0m WARNING 09-12 02:12:35 [topk_topp_sampler.py:61] FlashInfer is not available. Falling back to the PyTorch-native implementation of top-p & top-k sampling. For the best performance, please install FlashInfer.
[1;36m(VllmWorker TP3 pid=3048868)[0;0m WARNING 09-12 02:12:35 [topk_topp_sampler.py:61] FlashInfer is not available. Falling back to the PyTorch-native implementation of top-p & top-k sampling. For the best performance, please install FlashInfer.
[1;36m(VllmWorker TP0 pid=3048865)[0;0m WARNING 09-12 02:12:35 [topk_topp_sampler.py:61] FlashInfer is not available. Falling back to the PyTorch-native implementation of top-p & top-k sampling. For the best performance, please install FlashInfer.
[1;36m(VllmWorker TP2 pid=3048867)[0;0m INFO 09-12 02:12:37 [gpu_model_runner.py:1953] Starting to load model /home/minyingqian/models/Qwen2.5-VL-7B-Instruct...
[1;36m(VllmWorker TP2 pid=3048867)[0;0m INFO 09-12 02:12:38 [gpu_model_runner.py:1985] Loading model from scratch...
[1;36m(VllmWorker TP2 pid=3048867)[0;0m INFO 09-12 02:12:38 [cuda.py:328] Using Flash Attention backend on V1 engine.
[1;36m(VllmWorker TP1 pid=3048866)[0;0m INFO 09-12 02:12:38 [gpu_model_runner.py:1953] Starting to load model /home/minyingqian/models/Qwen2.5-VL-7B-Instruct...
[1;36m(VllmWorker TP0 pid=3048865)[0;0m INFO 09-12 02:12:38 [gpu_model_runner.py:1953] Starting to load model /home/minyingqian/models/Qwen2.5-VL-7B-Instruct...
[1;36m(VllmWorker TP3 pid=3048868)[0;0m INFO 09-12 02:12:38 [gpu_model_runner.py:1953] Starting to load model /home/minyingqian/models/Qwen2.5-VL-7B-Instruct...
[1;36m(VllmWorker TP1 pid=3048866)[0;0m INFO 09-12 02:12:39 [gpu_model_runner.py:1985] Loading model from scratch...
[1;36m(VllmWorker TP0 pid=3048865)[0;0m INFO 09-12 02:12:39 [gpu_model_runner.py:1985] Loading model from scratch...
[1;36m(VllmWorker TP1 pid=3048866)[0;0m INFO 09-12 02:12:39 [cuda.py:328] Using Flash Attention backend on V1 engine.
[1;36m(VllmWorker TP3 pid=3048868)[0;0m INFO 09-12 02:12:39 [gpu_model_runner.py:1985] Loading model from scratch...
[1;36m(VllmWorker TP0 pid=3048865)[0;0m INFO 09-12 02:12:39 [cuda.py:328] Using Flash Attention backend on V1 engine.
[1;36m(VllmWorker TP3 pid=3048868)[0;0m INFO 09-12 02:12:39 [cuda.py:328] Using Flash Attention backend on V1 engine.
[1;36m(VllmWorker TP0 pid=3048865)[0;0m Loading safetensors checkpoint shards:   0% Completed | 0/5 [00:00<?, ?it/s]
[1;36m(VllmWorker TP0 pid=3048865)[0;0m Loading safetensors checkpoint shards:  20% Completed | 1/5 [00:00<00:02,  1.94it/s]
[1;36m(VllmWorker TP0 pid=3048865)[0;0m Loading safetensors checkpoint shards:  40% Completed | 2/5 [00:01<00:01,  1.70it/s]
[1;36m(VllmWorker TP2 pid=3048867)[0;0m INFO 09-12 02:12:41 [default_loader.py:262] Loading weights took 2.51 seconds
[1;36m(VllmWorker TP0 pid=3048865)[0;0m Loading safetensors checkpoint shards:  60% Completed | 3/5 [00:01<00:01,  1.67it/s]
[1;36m(VllmWorker TP0 pid=3048865)[0;0m Loading safetensors checkpoint shards:  80% Completed | 4/5 [00:01<00:00,  2.31it/s]
[1;36m(VllmWorker TP2 pid=3048867)[0;0m INFO 09-12 02:12:41 [gpu_model_runner.py:2007] Model loading took 3.9977 GiB and 2.787299 seconds
[1;36m(VllmWorker TP0 pid=3048865)[0;0m Loading safetensors checkpoint shards: 100% Completed | 5/5 [00:02<00:00,  2.11it/s]
[1;36m(VllmWorker TP0 pid=3048865)[0;0m Loading safetensors checkpoint shards: 100% Completed | 5/5 [00:02<00:00,  2.01it/s]
[1;36m(VllmWorker TP0 pid=3048865)[0;0m 
[1;36m(VllmWorker TP0 pid=3048865)[0;0m INFO 09-12 02:12:41 [default_loader.py:262] Loading weights took 2.59 seconds
[1;36m(VllmWorker TP1 pid=3048866)[0;0m INFO 09-12 02:12:41 [default_loader.py:262] Loading weights took 2.64 seconds
[1;36m(VllmWorker TP3 pid=3048868)[0;0m INFO 09-12 02:12:42 [default_loader.py:262] Loading weights took 2.58 seconds
[1;36m(VllmWorker TP0 pid=3048865)[0;0m INFO 09-12 02:12:42 [gpu_model_runner.py:2007] Model loading took 3.9977 GiB and 2.849760 seconds
[1;36m(VllmWorker TP1 pid=3048866)[0;0m INFO 09-12 02:12:42 [gpu_model_runner.py:2007] Model loading took 3.9977 GiB and 2.899817 seconds
[1;36m(VllmWorker TP3 pid=3048868)[0;0m INFO 09-12 02:12:42 [gpu_model_runner.py:2007] Model loading took 3.9977 GiB and 2.841570 seconds
[1;36m(VllmWorker TP2 pid=3048867)[0;0m INFO 09-12 02:12:42 [gpu_model_runner.py:2591] Encoder cache will be initialized with a budget of 98304 tokens, and profiled with 1 video items of the maximum feature size.
[1;36m(VllmWorker TP1 pid=3048866)[0;0m INFO 09-12 02:12:42 [gpu_model_runner.py:2591] Encoder cache will be initialized with a budget of 98304 tokens, and profiled with 1 video items of the maximum feature size.
[1;36m(VllmWorker TP3 pid=3048868)[0;0m INFO 09-12 02:12:42 [gpu_model_runner.py:2591] Encoder cache will be initialized with a budget of 98304 tokens, and profiled with 1 video items of the maximum feature size.
[1;36m(VllmWorker TP0 pid=3048865)[0;0m INFO 09-12 02:12:42 [gpu_model_runner.py:2591] Encoder cache will be initialized with a budget of 98304 tokens, and profiled with 1 video items of the maximum feature size.
[1;36m(VllmWorker TP0 pid=3048865)[0;0m INFO 09-12 02:13:08 [backends.py:548] Using cache directory: /home/minyingqian/.cache/vllm/torch_compile_cache/7a1a193d31/rank_0_0/backbone for vLLM's torch.compile
[1;36m(VllmWorker TP0 pid=3048865)[0;0m INFO 09-12 02:13:08 [backends.py:559] Dynamo bytecode transform time: 4.28 s
[1;36m(VllmWorker TP1 pid=3048866)[0;0m INFO 09-12 02:13:08 [backends.py:548] Using cache directory: /home/minyingqian/.cache/vllm/torch_compile_cache/7a1a193d31/rank_1_0/backbone for vLLM's torch.compile
[1;36m(VllmWorker TP1 pid=3048866)[0;0m INFO 09-12 02:13:08 [backends.py:559] Dynamo bytecode transform time: 4.30 s
[1;36m(VllmWorker TP3 pid=3048868)[0;0m INFO 09-12 02:13:08 [backends.py:548] Using cache directory: /home/minyingqian/.cache/vllm/torch_compile_cache/7a1a193d31/rank_3_0/backbone for vLLM's torch.compile
[1;36m(VllmWorker TP3 pid=3048868)[0;0m INFO 09-12 02:13:08 [backends.py:559] Dynamo bytecode transform time: 4.43 s
[1;36m(VllmWorker TP2 pid=3048867)[0;0m INFO 09-12 02:13:09 [backends.py:548] Using cache directory: /home/minyingqian/.cache/vllm/torch_compile_cache/7a1a193d31/rank_2_0/backbone for vLLM's torch.compile
[1;36m(VllmWorker TP2 pid=3048867)[0;0m INFO 09-12 02:13:09 [backends.py:559] Dynamo bytecode transform time: 4.65 s
[1;36m(VllmWorker TP0 pid=3048865)[0;0m INFO 09-12 02:13:12 [backends.py:161] Directly load the compiled graph(s) for dynamic shape from the cache, took 3.300 s
[1;36m(VllmWorker TP1 pid=3048866)[0;0m INFO 09-12 02:13:12 [backends.py:161] Directly load the compiled graph(s) for dynamic shape from the cache, took 3.350 s
[1;36m(VllmWorker TP3 pid=3048868)[0;0m INFO 09-12 02:13:12 [backends.py:161] Directly load the compiled graph(s) for dynamic shape from the cache, took 3.476 s
[1;36m(VllmWorker TP2 pid=3048867)[0;0m INFO 09-12 02:13:12 [backends.py:161] Directly load the compiled graph(s) for dynamic shape from the cache, took 3.558 s
[1;36m(VllmWorker TP0 pid=3048865)[0;0m INFO 09-12 02:13:13 [monitor.py:34] torch.compile takes 4.28 s in total
[1;36m(VllmWorker TP1 pid=3048866)[0;0m INFO 09-12 02:13:13 [monitor.py:34] torch.compile takes 4.30 s in total
[1;36m(VllmWorker TP3 pid=3048868)[0;0m INFO 09-12 02:13:13 [monitor.py:34] torch.compile takes 4.43 s in total
[1;36m(VllmWorker TP2 pid=3048867)[0;0m INFO 09-12 02:13:14 [monitor.py:34] torch.compile takes 4.65 s in total
[1;36m(VllmWorker TP2 pid=3048867)[0;0m INFO 09-12 02:13:17 [gpu_worker.py:276] Available KV cache memory: 15.49 GiB
[1;36m(VllmWorker TP0 pid=3048865)[0;0m INFO 09-12 02:13:17 [gpu_worker.py:276] Available KV cache memory: 15.49 GiB
[1;36m(VllmWorker TP3 pid=3048868)[0;0m INFO 09-12 02:13:17 [gpu_worker.py:276] Available KV cache memory: 15.49 GiB
[1;36m(VllmWorker TP1 pid=3048866)[0;0m INFO 09-12 02:13:17 [gpu_worker.py:276] Available KV cache memory: 15.49 GiB
[1;36m(EngineCore_0 pid=3048708)[0;0m INFO 09-12 02:13:17 [kv_cache_utils.py:849] GPU KV cache size: 1,159,856 tokens
[1;36m(EngineCore_0 pid=3048708)[0;0m INFO 09-12 02:13:17 [kv_cache_utils.py:853] Maximum concurrency for 128,000 tokens per request: 9.06x
[1;36m(EngineCore_0 pid=3048708)[0;0m INFO 09-12 02:13:17 [kv_cache_utils.py:849] GPU KV cache size: 1,159,856 tokens
[1;36m(EngineCore_0 pid=3048708)[0;0m INFO 09-12 02:13:17 [kv_cache_utils.py:853] Maximum concurrency for 128,000 tokens per request: 9.06x
[1;36m(EngineCore_0 pid=3048708)[0;0m INFO 09-12 02:13:17 [kv_cache_utils.py:849] GPU KV cache size: 1,159,856 tokens
[1;36m(EngineCore_0 pid=3048708)[0;0m INFO 09-12 02:13:17 [kv_cache_utils.py:853] Maximum concurrency for 128,000 tokens per request: 9.06x
[1;36m(EngineCore_0 pid=3048708)[0;0m INFO 09-12 02:13:17 [kv_cache_utils.py:849] GPU KV cache size: 1,159,856 tokens
[1;36m(EngineCore_0 pid=3048708)[0;0m INFO 09-12 02:13:17 [kv_cache_utils.py:853] Maximum concurrency for 128,000 tokens per request: 9.06x
[1;36m(VllmWorker TP0 pid=3048865)[0;0m Capturing CUDA graphs (mixed prefill-decode, PIECEWISE):   0%|          | 0/67 [00:00<?, ?it/s]Capturing CUDA graphs (mixed prefill-decode, PIECEWISE):   1%|â–         | 1/67 [00:00<00:13,  5.00it/s]Capturing CUDA graphs (mixed prefill-decode, PIECEWISE):   3%|â–Ž         | 2/67 [00:00<00:13,  4.98it/s]Capturing CUDA graphs (mixed prefill-decode, PIECEWISE):   4%|â–         | 3/67 [00:00<00:12,  4.99it/s]Capturing CUDA graphs (mixed prefill-decode, PIECEWISE):   6%|â–Œ         | 4/67 [00:00<00:12,  5.05it/s]Capturing CUDA graphs (mixed prefill-decode, PIECEWISE):   7%|â–‹         | 5/67 [00:00<00:12,  5.08it/s]Capturing CUDA graphs (mixed prefill-decode, PIECEWISE):   9%|â–‰         | 6/67 [00:01<00:11,  5.10it/s]Capturing CUDA graphs (mixed prefill-decode, PIECEWISE):  10%|â–ˆ         | 7/67 [00:01<00:11,  5.15it/s]Capturing CUDA graphs (mixed prefill-decode, PIECEWISE):  12%|â–ˆâ–        | 8/67 [00:01<00:11,  5.16it/s]Capturing CUDA graphs (mixed prefill-decode, PIECEWISE):  13%|â–ˆâ–Ž        | 9/67 [00:01<00:11,  5.21it/s]Capturing CUDA graphs (mixed prefill-decode, PIECEWISE):  15%|â–ˆâ–        | 10/67 [00:01<00:11,  5.17it/s]Capturing CUDA graphs (mixed prefill-decode, PIECEWISE):  16%|â–ˆâ–‹        | 11/67 [00:02<00:10,  5.29it/s]Capturing CUDA graphs (mixed prefill-decode, PIECEWISE):  18%|â–ˆâ–Š        | 12/67 [00:02<00:10,  5.36it/s]Capturing CUDA graphs (mixed prefill-decode, PIECEWISE):  19%|â–ˆâ–‰        | 13/67 [00:02<00:10,  5.36it/s]Capturing CUDA graphs (mixed prefill-decode, PIECEWISE):  21%|â–ˆâ–ˆ        | 14/67 [00:02<00:09,  5.44it/s]Capturing CUDA graphs (mixed prefill-decode, PIECEWISE):  22%|â–ˆâ–ˆâ–       | 15/67 [00:02<00:09,  5.53it/s]Capturing CUDA graphs (mixed prefill-decode, PIECEWISE):  24%|â–ˆâ–ˆâ–       | 16/67 [00:03<00:09,  5.60it/s]Capturing CUDA graphs (mixed prefill-decode, PIECEWISE):  25%|â–ˆâ–ˆâ–Œ       | 17/67 [00:03<00:08,  5.58it/s]Capturing CUDA graphs (mixed prefill-decode, PIECEWISE):  27%|â–ˆâ–ˆâ–‹       | 18/67 [00:03<00:08,  5.65it/s]Capturing CUDA graphs (mixed prefill-decode, PIECEWISE):  28%|â–ˆâ–ˆâ–Š       | 19/67 [00:03<00:08,  5.75it/s]Capturing CUDA graphs (mixed prefill-decode, PIECEWISE):  30%|â–ˆâ–ˆâ–‰       | 20/67 [00:03<00:08,  5.74it/s]Capturing CUDA graphs (mixed prefill-decode, PIECEWISE):  31%|â–ˆâ–ˆâ–ˆâ–      | 21/67 [00:03<00:07,  5.86it/s]Capturing CUDA graphs (mixed prefill-decode, PIECEWISE):  33%|â–ˆâ–ˆâ–ˆâ–Ž      | 22/67 [00:04<00:07,  5.87it/s]Capturing CUDA graphs (mixed prefill-decode, PIECEWISE):  34%|â–ˆâ–ˆâ–ˆâ–      | 23/67 [00:04<00:07,  6.00it/s]Capturing CUDA graphs (mixed prefill-decode, PIECEWISE):  36%|â–ˆâ–ˆâ–ˆâ–Œ      | 24/67 [00:04<00:07,  6.05it/s]Capturing CUDA graphs (mixed prefill-decode, PIECEWISE):  37%|â–ˆâ–ˆâ–ˆâ–‹      | 25/67 [00:04<00:06,  6.22it/s]Capturing CUDA graphs (mixed prefill-decode, PIECEWISE):  39%|â–ˆâ–ˆâ–ˆâ–‰      | 26/67 [00:04<00:06,  6.36it/s]Capturing CUDA graphs (mixed prefill-decode, PIECEWISE):  40%|â–ˆâ–ˆâ–ˆâ–ˆ      | 27/67 [00:04<00:06,  6.54it/s]Capturing CUDA graphs (mixed prefill-decode, PIECEWISE):  42%|â–ˆâ–ˆâ–ˆâ–ˆâ–     | 28/67 [00:04<00:05,  6.53it/s]Capturing CUDA graphs (mixed prefill-decode, PIECEWISE):  43%|â–ˆâ–ˆâ–ˆâ–ˆâ–Ž     | 29/67 [00:05<00:05,  6.62it/s]Capturing CUDA graphs (mixed prefill-decode, PIECEWISE):  45%|â–ˆâ–ˆâ–ˆâ–ˆâ–     | 30/67 [00:05<00:05,  6.83it/s]Capturing CUDA graphs (mixed prefill-decode, PIECEWISE):  46%|â–ˆâ–ˆâ–ˆâ–ˆâ–‹     | 31/67 [00:05<00:05,  6.85it/s]Capturing CUDA graphs (mixed prefill-decode, PIECEWISE):  48%|â–ˆâ–ˆâ–ˆâ–ˆâ–Š     | 32/67 [00:05<00:04,  7.03it/s]Capturing CUDA graphs (mixed prefill-decode, PIECEWISE):  49%|â–ˆâ–ˆâ–ˆâ–ˆâ–‰     | 33/67 [00:05<00:04,  7.19it/s]Capturing CUDA graphs (mixed prefill-decode, PIECEWISE):  51%|â–ˆâ–ˆâ–ˆâ–ˆâ–ˆ     | 34/67 [00:05<00:04,  7.24it/s]Capturing CUDA graphs (mixed prefill-decode, PIECEWISE):  52%|â–ˆâ–ˆâ–ˆâ–ˆâ–ˆâ–    | 35/67 [00:05<00:04,  7.28it/s]Capturing CUDA graphs (mixed prefill-decode, PIECEWISE):  54%|â–ˆâ–ˆâ–ˆâ–ˆâ–ˆâ–Ž    | 36/67 [00:06<00:04,  7.49it/s]Capturing CUDA graphs (mixed prefill-decode, PIECEWISE):  55%|â–ˆâ–ˆâ–ˆâ–ˆâ–ˆâ–Œ    | 37/67 [00:06<00:03,  7.60it/s]Capturing CUDA graphs (mixed prefill-decode, PIECEWISE):  57%|â–ˆâ–ˆâ–ˆâ–ˆâ–ˆâ–‹    | 38/67 [00:06<00:03,  7.72it/s]Capturing CUDA graphs (mixed prefill-decode, PIECEWISE):  58%|â–ˆâ–ˆâ–ˆâ–ˆâ–ˆâ–Š    | 39/67 [00:06<00:03,  7.67it/s]Capturing CUDA graphs (mixed prefill-decode, PIECEWISE):  60%|â–ˆâ–ˆâ–ˆâ–ˆâ–ˆâ–‰    | 40/67 [00:06<00:03,  7.86it/s]Capturing CUDA graphs (mixed prefill-decode, PIECEWISE):  61%|â–ˆâ–ˆâ–ˆâ–ˆâ–ˆâ–ˆ    | 41/67 [00:06<00:03,  8.06it/s]Capturing CUDA graphs (mixed prefill-decode, PIECEWISE):  63%|â–ˆâ–ˆâ–ˆâ–ˆâ–ˆâ–ˆâ–Ž   | 42/67 [00:06<00:03,  7.96it/s]Capturing CUDA graphs (mixed prefill-decode, PIECEWISE):  64%|â–ˆâ–ˆâ–ˆâ–ˆâ–ˆâ–ˆâ–   | 43/67 [00:06<00:02,  8.24it/s]Capturing CUDA graphs (mixed prefill-decode, PIECEWISE):  66%|â–ˆâ–ˆâ–ˆâ–ˆâ–ˆâ–ˆâ–Œ   | 44/67 [00:07<00:02,  8.43it/s]Capturing CUDA graphs (mixed prefill-decode, PIECEWISE):  67%|â–ˆâ–ˆâ–ˆâ–ˆâ–ˆâ–ˆâ–‹   | 45/67 [00:07<00:02,  8.62it/s]Capturing CUDA graphs (mixed prefill-decode, PIECEWISE):  69%|â–ˆâ–ˆâ–ˆâ–ˆâ–ˆâ–ˆâ–Š   | 46/67 [00:07<00:02,  8.65it/s]Capturing CUDA graphs (mixed prefill-decode, PIECEWISE):  70%|â–ˆâ–ˆâ–ˆâ–ˆâ–ˆâ–ˆâ–ˆ   | 47/67 [00:07<00:02,  8.76it/s]Capturing CUDA graphs (mixed prefill-decode, PIECEWISE):  72%|â–ˆâ–ˆâ–ˆâ–ˆâ–ˆâ–ˆâ–ˆâ–  | 48/67 [00:07<00:02,  8.61it/s]Capturing CUDA graphs (mixed prefill-decode, PIECEWISE):  73%|â–ˆâ–ˆâ–ˆâ–ˆâ–ˆâ–ˆâ–ˆâ–Ž  | 49/67 [00:07<00:02,  8.91it/s]Capturing CUDA graphs (mixed prefill-decode, PIECEWISE):  75%|â–ˆâ–ˆâ–ˆâ–ˆâ–ˆâ–ˆâ–ˆâ–  | 50/67 [00:07<00:01,  9.13it/s]Capturing CUDA graphs (mixed prefill-decode, PIECEWISE):  78%|â–ˆâ–ˆâ–ˆâ–ˆâ–ˆâ–ˆâ–ˆâ–Š  | 52/67 [00:07<00:01,  9.64it/s]Capturing CUDA graphs (mixed prefill-decode, PIECEWISE):  79%|â–ˆâ–ˆâ–ˆâ–ˆâ–ˆâ–ˆâ–ˆâ–‰  | 53/67 [00:07<00:01,  9.67it/s]Capturing CUDA graphs (mixed prefill-decode, PIECEWISE):  82%|â–ˆâ–ˆâ–ˆâ–ˆâ–ˆâ–ˆâ–ˆâ–ˆâ– | 55/67 [00:08<00:01, 10.07it/s]Capturing CUDA graphs (mixed prefill-decode, PIECEWISE):  85%|â–ˆâ–ˆâ–ˆâ–ˆâ–ˆâ–ˆâ–ˆâ–ˆâ–Œ | 57/67 [00:08<00:01,  9.99it/s]Capturing CUDA graphs (mixed prefill-decode, PIECEWISE):  88%|â–ˆâ–ˆâ–ˆâ–ˆâ–ˆâ–ˆâ–ˆâ–ˆâ–Š | 59/67 [00:08<00:00, 11.04it/s]Capturing CUDA graphs (mixed prefill-decode, PIECEWISE):  91%|â–ˆâ–ˆâ–ˆâ–ˆâ–ˆâ–ˆâ–ˆâ–ˆâ–ˆ | 61/67 [00:08<00:00, 12.22it/s]Capturing CUDA graphs (mixed prefill-decode, PIECEWISE):  94%|â–ˆâ–ˆâ–ˆâ–ˆâ–ˆâ–ˆâ–ˆâ–ˆâ–ˆâ–| 63/67 [00:08<00:00, 13.15it/s]Capturing CUDA graphs (mixed prefill-decode, PIECEWISE):  97%|â–ˆâ–ˆâ–ˆâ–ˆâ–ˆâ–ˆâ–ˆâ–ˆâ–ˆâ–‹| 65/67 [00:08<00:00, 14.17it/s]Capturing CUDA graphs (mixed prefill-decode, PIECEWISE): 100%|â–ˆâ–ˆâ–ˆâ–ˆâ–ˆâ–ˆâ–ˆâ–ˆâ–ˆâ–ˆ| 67/67 [00:09<00:00, 14.31it/s]Capturing CUDA graphs (mixed prefill-decode, PIECEWISE): 100%|â–ˆâ–ˆâ–ˆâ–ˆâ–ˆâ–ˆâ–ˆâ–ˆâ–ˆâ–ˆ| 67/67 [00:09<00:00,  7.42it/s]
[1;36m(VllmWorker TP2 pid=3048867)[0;0m INFO 09-12 02:13:26 [gpu_model_runner.py:2708] Graph capturing finished in 9 secs, took 0.65 GiB
[1;36m(VllmWorker TP1 pid=3048866)[0;0m INFO 09-12 02:13:26 [gpu_model_runner.py:2708] Graph capturing finished in 9 secs, took 0.65 GiB
[1;36m(VllmWorker TP0 pid=3048865)[0;0m INFO 09-12 02:13:26 [gpu_model_runner.py:2708] Graph capturing finished in 9 secs, took 0.65 GiB
[1;36m(VllmWorker TP3 pid=3048868)[0;0m INFO 09-12 02:13:26 [gpu_model_runner.py:2708] Graph capturing finished in 9 secs, took 0.65 GiB
[1;36m(EngineCore_0 pid=3048708)[0;0m INFO 09-12 02:13:26 [core.py:214] init engine (profile, create kv cache, warmup model) took 44.40 seconds
INFO 09-12 02:13:32 [llm.py:298] Supported_tasks: ['generate']
Loading inference results from: MathVista_inferenced.jsonl
Loaded 999 inference results
Preparing judge inputs for 999 samples...
  0%|          | 0/999 [00:00<?, ?it/s]  0%|          | 2/999 [00:00<00:58, 17.00it/s]  1%|â–         | 13/999 [00:00<00:14, 67.67it/s]  2%|â–         | 21/999 [00:00<00:13, 69.90it/s]  3%|â–Ž         | 29/999 [00:00<00:20, 47.79it/s]  4%|â–         | 41/999 [00:01<00:33, 28.28it/s]  5%|â–Œ         | 53/999 [00:01<00:23, 40.17it/s]  7%|â–‹         | 70/999 [00:01<00:18, 50.18it/s]  8%|â–Š         | 80/999 [00:01<00:15, 57.99it/s]  9%|â–‰         | 88/999 [00:01<00:17, 53.53it/s] 10%|â–‰         | 98/999 [00:01<00:14, 60.97it/s] 11%|â–ˆ         | 110/999 [00:02<00:12, 72.03it/s] 12%|â–ˆâ–        | 122/999 [00:02<00:10, 81.83it/s] 13%|â–ˆâ–Ž        | 132/999 [00:02<00:10, 79.65it/s] 15%|â–ˆâ–        | 145/999 [00:02<00:09, 89.22it/s] 16%|â–ˆâ–Œ        | 159/999 [00:02<00:08, 97.81it/s] 17%|â–ˆâ–‹        | 170/999 [00:02<00:10, 75.45it/s] 18%|â–ˆâ–Š        | 183/999 [00:02<00:09, 86.83it/s] 19%|â–ˆâ–‰        | 194/999 [00:02<00:08, 90.79it/s] 21%|â–ˆâ–ˆ        | 206/999 [00:03<00:08, 95.31it/s] 22%|â–ˆâ–ˆâ–       | 221/999 [00:03<00:07, 109.21it/s] 23%|â–ˆâ–ˆâ–Ž       | 233/999 [00:03<00:11, 69.14it/s]  24%|â–ˆâ–ˆâ–       | 243/999 [00:03<00:15, 49.79it/s] 25%|â–ˆâ–ˆâ–Œ       | 254/999 [00:03<00:12, 58.85it/s] 26%|â–ˆâ–ˆâ–‹       | 264/999 [00:04<00:12, 57.77it/s] 28%|â–ˆâ–ˆâ–Š       | 281/999 [00:04<00:09, 78.17it/s] 29%|â–ˆâ–ˆâ–‰       | 292/999 [00:04<00:08, 84.64it/s] 30%|â–ˆâ–ˆâ–ˆ       | 303/999 [00:04<00:09, 72.79it/s] 31%|â–ˆâ–ˆâ–ˆ       | 312/999 [00:04<00:10, 68.61it/s] 33%|â–ˆâ–ˆâ–ˆâ–Ž      | 329/999 [00:04<00:10, 66.49it/s] 34%|â–ˆâ–ˆâ–ˆâ–      | 342/999 [00:05<00:08, 77.79it/s] 35%|â–ˆâ–ˆâ–ˆâ–Œ      | 352/999 [00:05<00:08, 72.81it/s] 37%|â–ˆâ–ˆâ–ˆâ–‹      | 367/999 [00:05<00:07, 87.04it/s] 38%|â–ˆâ–ˆâ–ˆâ–Š      | 381/999 [00:05<00:06, 95.31it/s] 39%|â–ˆâ–ˆâ–ˆâ–‰      | 393/999 [00:05<00:06, 100.21it/s] 40%|â–ˆâ–ˆâ–ˆâ–ˆ      | 404/999 [00:05<00:06, 85.19it/s]  41%|â–ˆâ–ˆâ–ˆâ–ˆâ–     | 414/999 [00:05<00:07, 79.24it/s] 42%|â–ˆâ–ˆâ–ˆâ–ˆâ–     | 423/999 [00:06<00:09, 62.37it/s] 43%|â–ˆâ–ˆâ–ˆâ–ˆâ–Ž     | 432/999 [00:06<00:08, 66.56it/s] 45%|â–ˆâ–ˆâ–ˆâ–ˆâ–     | 445/999 [00:06<00:06, 79.94it/s] 46%|â–ˆâ–ˆâ–ˆâ–ˆâ–Œ     | 459/999 [00:06<00:05, 93.08it/s] 47%|â–ˆâ–ˆâ–ˆâ–ˆâ–‹     | 470/999 [00:06<00:06, 84.15it/s] 48%|â–ˆâ–ˆâ–ˆâ–ˆâ–Š     | 480/999 [00:06<00:07, 69.09it/s] 50%|â–ˆâ–ˆâ–ˆâ–ˆâ–‰     | 498/999 [00:06<00:05, 91.54it/s] 51%|â–ˆâ–ˆâ–ˆâ–ˆâ–ˆ     | 509/999 [00:07<00:05, 93.39it/s] 52%|â–ˆâ–ˆâ–ˆâ–ˆâ–ˆâ–    | 520/999 [00:07<00:07, 66.45it/s] 53%|â–ˆâ–ˆâ–ˆâ–ˆâ–ˆâ–Ž    | 529/999 [00:07<00:07, 65.58it/s] 54%|â–ˆâ–ˆâ–ˆâ–ˆâ–ˆâ–    | 542/999 [00:07<00:06, 70.69it/s] 55%|â–ˆâ–ˆâ–ˆâ–ˆâ–ˆâ–Œ    | 550/999 [00:07<00:06, 72.42it/s] 56%|â–ˆâ–ˆâ–ˆâ–ˆâ–ˆâ–Œ    | 559/999 [00:07<00:05, 75.35it/s] 57%|â–ˆâ–ˆâ–ˆâ–ˆâ–ˆâ–‹    | 568/999 [00:08<00:06, 69.95it/s] 58%|â–ˆâ–ˆâ–ˆâ–ˆâ–ˆâ–Š    | 576/999 [00:08<00:07, 59.09it/s] 59%|â–ˆâ–ˆâ–ˆâ–ˆâ–ˆâ–‰    | 588/999 [00:08<00:07, 57.94it/s] 60%|â–ˆâ–ˆâ–ˆâ–ˆâ–ˆâ–‰    | 598/999 [00:08<00:06, 65.67it/s] 61%|â–ˆâ–ˆâ–ˆâ–ˆâ–ˆâ–ˆ    | 606/999 [00:08<00:06, 57.56it/s] 62%|â–ˆâ–ˆâ–ˆâ–ˆâ–ˆâ–ˆâ–   | 619/999 [00:08<00:05, 71.70it/s] 64%|â–ˆâ–ˆâ–ˆâ–ˆâ–ˆâ–ˆâ–   | 639/999 [00:08<00:03, 97.01it/s] 65%|â–ˆâ–ˆâ–ˆâ–ˆâ–ˆâ–ˆâ–Œ   | 654/999 [00:09<00:03, 107.73it/s] 67%|â–ˆâ–ˆâ–ˆâ–ˆâ–ˆâ–ˆâ–‹   | 666/999 [00:09<00:04, 75.91it/s]  68%|â–ˆâ–ˆâ–ˆâ–ˆâ–ˆâ–ˆâ–Š   | 676/999 [00:09<00:04, 71.43it/s] 69%|â–ˆâ–ˆâ–ˆâ–ˆâ–ˆâ–ˆâ–‰   | 688/999 [00:09<00:05, 56.80it/s] 70%|â–ˆâ–ˆâ–ˆâ–ˆâ–ˆâ–ˆâ–‰   | 699/999 [00:10<00:07, 39.12it/s] 71%|â–ˆâ–ˆâ–ˆâ–ˆâ–ˆâ–ˆâ–ˆ   | 705/999 [00:10<00:07, 38.83it/s] 71%|â–ˆâ–ˆâ–ˆâ–ˆâ–ˆâ–ˆâ–ˆ   | 711/999 [00:10<00:07, 41.02it/s] 72%|â–ˆâ–ˆâ–ˆâ–ˆâ–ˆâ–ˆâ–ˆâ–  | 717/999 [00:10<00:06, 41.32it/s] 73%|â–ˆâ–ˆâ–ˆâ–ˆâ–ˆâ–ˆâ–ˆâ–Ž  | 732/999 [00:10<00:04, 58.08it/s] 74%|â–ˆâ–ˆâ–ˆâ–ˆâ–ˆâ–ˆâ–ˆâ–  | 741/999 [00:10<00:04, 59.90it/s] 75%|â–ˆâ–ˆâ–ˆâ–ˆâ–ˆâ–ˆâ–ˆâ–  | 748/999 [00:11<00:05, 43.32it/s] 76%|â–ˆâ–ˆâ–ˆâ–ˆâ–ˆâ–ˆâ–ˆâ–Œ  | 759/999 [00:11<00:04, 54.77it/s] 77%|â–ˆâ–ˆâ–ˆâ–ˆâ–ˆâ–ˆâ–ˆâ–‹  | 771/999 [00:11<00:03, 66.75it/s] 78%|â–ˆâ–ˆâ–ˆâ–ˆâ–ˆâ–ˆâ–ˆâ–Š  | 781/999 [00:11<00:02, 72.90it/s] 79%|â–ˆâ–ˆâ–ˆâ–ˆâ–ˆâ–ˆâ–ˆâ–‰  | 792/999 [00:12<00:04, 46.81it/s] 80%|â–ˆâ–ˆâ–ˆâ–ˆâ–ˆâ–ˆâ–ˆâ–‰  | 799/999 [00:12<00:04, 43.23it/s] 81%|â–ˆâ–ˆâ–ˆâ–ˆâ–ˆâ–ˆâ–ˆâ–ˆâ– | 813/999 [00:12<00:03, 50.58it/s] 83%|â–ˆâ–ˆâ–ˆâ–ˆâ–ˆâ–ˆâ–ˆâ–ˆâ–Ž | 826/999 [00:12<00:02, 63.58it/s] 84%|â–ˆâ–ˆâ–ˆâ–ˆâ–ˆâ–ˆâ–ˆâ–ˆâ–Ž | 835/999 [00:12<00:02, 57.32it/s] 84%|â–ˆâ–ˆâ–ˆâ–ˆâ–ˆâ–ˆâ–ˆâ–ˆâ– | 842/999 [00:12<00:02, 54.72it/s] 85%|â–ˆâ–ˆâ–ˆâ–ˆâ–ˆâ–ˆâ–ˆâ–ˆâ– | 849/999 [00:13<00:02, 52.07it/s] 86%|â–ˆâ–ˆâ–ˆâ–ˆâ–ˆâ–ˆâ–ˆâ–ˆâ–Œ | 858/999 [00:13<00:02, 56.58it/s] 87%|â–ˆâ–ˆâ–ˆâ–ˆâ–ˆâ–ˆâ–ˆâ–ˆâ–‹ | 865/999 [00:13<00:02, 48.08it/s] 88%|â–ˆâ–ˆâ–ˆâ–ˆâ–ˆâ–ˆâ–ˆâ–ˆâ–Š | 880/999 [00:13<00:01, 67.30it/s] 89%|â–ˆâ–ˆâ–ˆâ–ˆâ–ˆâ–ˆâ–ˆâ–ˆâ–‰ | 892/999 [00:13<00:01, 78.68it/s] 90%|â–ˆâ–ˆâ–ˆâ–ˆâ–ˆâ–ˆâ–ˆâ–ˆâ–ˆ | 902/999 [00:13<00:01, 71.47it/s] 91%|â–ˆâ–ˆâ–ˆâ–ˆâ–ˆâ–ˆâ–ˆâ–ˆâ–ˆâ–| 913/999 [00:13<00:01, 79.52it/s] 92%|â–ˆâ–ˆâ–ˆâ–ˆâ–ˆâ–ˆâ–ˆâ–ˆâ–ˆâ–| 923/999 [00:14<00:00, 77.71it/s] 94%|â–ˆâ–ˆâ–ˆâ–ˆâ–ˆâ–ˆâ–ˆâ–ˆâ–ˆâ–| 940/999 [00:14<00:00, 99.15it/s] 95%|â–ˆâ–ˆâ–ˆâ–ˆâ–ˆâ–ˆâ–ˆâ–ˆâ–ˆâ–Œ| 951/999 [00:14<00:00, 97.77it/s] 96%|â–ˆâ–ˆâ–ˆâ–ˆâ–ˆâ–ˆâ–ˆâ–ˆâ–ˆâ–‹| 962/999 [00:14<00:00, 78.57it/s] 97%|â–ˆâ–ˆâ–ˆâ–ˆâ–ˆâ–ˆâ–ˆâ–ˆâ–ˆâ–‹| 972/999 [00:14<00:00, 82.87it/s] 98%|â–ˆâ–ˆâ–ˆâ–ˆâ–ˆâ–ˆâ–ˆâ–ˆâ–ˆâ–Š| 982/999 [00:14<00:00, 61.10it/s] 99%|â–ˆâ–ˆâ–ˆâ–ˆâ–ˆâ–ˆâ–ˆâ–ˆâ–ˆâ–‰| 994/999 [00:14<00:00, 72.13it/s]100%|â–ˆâ–ˆâ–ˆâ–ˆâ–ˆâ–ˆâ–ˆâ–ˆâ–ˆâ–ˆ| 999/999 [00:14<00:00, 66.83it/s]
Running judge evaluation...
Adding requests:   0%|          | 0/20 [00:00<?, ?it/s]Adding requests:   5%|â–Œ         | 1/20 [00:02<00:47,  2.53s/it]Adding requests:  15%|â–ˆâ–Œ        | 3/20 [00:02<00:11,  1.43it/s]Adding requests:  70%|â–ˆâ–ˆâ–ˆâ–ˆâ–ˆâ–ˆâ–ˆ   | 14/20 [00:02<00:00,  9.04it/s]Adding requests: 100%|â–ˆâ–ˆâ–ˆâ–ˆâ–ˆâ–ˆâ–ˆâ–ˆâ–ˆâ–ˆ| 20/20 [00:02<00:00,  7.09it/s]
Processed prompts:   0%|          | 0/20 [00:00<?, ?it/s, est. speed input: 0.00 toks/s, output: 0.00 toks/s]Processed prompts:   5%|â–Œ         | 1/20 [00:05<01:41,  5.33s/it, est. speed input: 441.04 toks/s, output: 0.38 toks/s]Processed prompts:  10%|â–ˆ         | 2/20 [00:09<01:24,  4.70s/it, est. speed input: 390.60 toks/s, output: 0.42 toks/s]Processed prompts:  15%|â–ˆâ–Œ        | 3/20 [00:12<01:09,  4.08s/it, est. speed input: 961.96 toks/s, output: 0.46 toks/s]Processed prompts: 100%|â–ˆâ–ˆâ–ˆâ–ˆâ–ˆâ–ˆâ–ˆâ–ˆâ–ˆâ–ˆ| 20/20 [00:12<00:00,  4.08s/it, est. speed input: 1829.26 toks/s, output: 3.09 toks/s]Processed prompts: 100%|â–ˆâ–ˆâ–ˆâ–ˆâ–ˆâ–ˆâ–ˆâ–ˆâ–ˆâ–ˆ| 20/20 [00:12<00:00,  1.54it/s, est. speed input: 1829.26 toks/s, output: 3.09 toks/s]
Adding requests:   0%|          | 0/20 [00:00<?, ?it/s]Adding requests:  20%|â–ˆâ–ˆ        | 4/20 [00:00<00:00, 39.15it/s]Adding requests:  40%|â–ˆâ–ˆâ–ˆâ–ˆ      | 8/20 [00:00<00:00, 22.25it/s]Adding requests:  75%|â–ˆâ–ˆâ–ˆâ–ˆâ–ˆâ–ˆâ–ˆâ–Œ  | 15/20 [00:00<00:00, 36.97it/s]Adding requests: 100%|â–ˆâ–ˆâ–ˆâ–ˆâ–ˆâ–ˆâ–ˆâ–ˆâ–ˆâ–ˆ| 20/20 [00:00<00:00, 40.61it/s]
Processed prompts:   0%|          | 0/20 [00:00<?, ?it/s, est. speed input: 0.00 toks/s, output: 0.00 toks/s]Processed prompts:   5%|â–Œ         | 1/20 [00:02<00:53,  2.82s/it, est. speed input: 149.49 toks/s, output: 0.71 toks/s]Processed prompts:  10%|â–ˆ         | 2/20 [00:10<01:47,  5.95s/it, est. speed input: 119.37 toks/s, output: 0.37 toks/s]Processed prompts:  35%|â–ˆâ–ˆâ–ˆâ–Œ      | 7/20 [00:14<00:21,  1.65s/it, est. speed input: 764.69 toks/s, output: 0.99 toks/s]Processed prompts:  50%|â–ˆâ–ˆâ–ˆâ–ˆâ–ˆ     | 10/20 [00:17<00:14,  1.41s/it, est. speed input: 757.78 toks/s, output: 1.16 toks/s]Processed prompts: 100%|â–ˆâ–ˆâ–ˆâ–ˆâ–ˆâ–ˆâ–ˆâ–ˆâ–ˆâ–ˆ| 20/20 [00:17<00:00,  1.41s/it, est. speed input: 1598.56 toks/s, output: 2.31 toks/s]Processed prompts: 100%|â–ˆâ–ˆâ–ˆâ–ˆâ–ˆâ–ˆâ–ˆâ–ˆâ–ˆâ–ˆ| 20/20 [00:17<00:00,  1.15it/s, est. speed input: 1598.56 toks/s, output: 2.31 toks/s]
Adding requests:   0%|          | 0/20 [00:00<?, ?it/s]Adding requests:   5%|â–Œ         | 1/20 [00:01<00:19,  1.05s/it]Adding requests:  45%|â–ˆâ–ˆâ–ˆâ–ˆâ–Œ     | 9/20 [00:01<00:01,  9.71it/s]Adding requests:  95%|â–ˆâ–ˆâ–ˆâ–ˆâ–ˆâ–ˆâ–ˆâ–ˆâ–ˆâ–Œ| 19/20 [00:01<00:00, 22.02it/s]Adding requests: 100%|â–ˆâ–ˆâ–ˆâ–ˆâ–ˆâ–ˆâ–ˆâ–ˆâ–ˆâ–ˆ| 20/20 [00:01<00:00, 15.10it/s]
Processed prompts:   0%|          | 0/20 [00:00<?, ?it/s, est. speed input: 0.00 toks/s, output: 0.00 toks/s]Processed prompts:   5%|â–Œ         | 1/20 [00:27<08:46, 27.73s/it, est. speed input: 596.91 toks/s, output: 0.07 toks/s]Processed prompts: 100%|â–ˆâ–ˆâ–ˆâ–ˆâ–ˆâ–ˆâ–ˆâ–ˆâ–ˆâ–ˆ| 20/20 [00:27<00:00, 27.73s/it, est. speed input: 1056.87 toks/s, output: 1.44 toks/s]Processed prompts: 100%|â–ˆâ–ˆâ–ˆâ–ˆâ–ˆâ–ˆâ–ˆâ–ˆâ–ˆâ–ˆ| 20/20 [00:27<00:00,  1.39s/it, est. speed input: 1056.87 toks/s, output: 1.44 toks/s]
Adding requests:   0%|          | 0/20 [00:00<?, ?it/s]Adding requests:  40%|â–ˆâ–ˆâ–ˆâ–ˆ      | 8/20 [00:00<00:00, 78.49it/s]Adding requests:  80%|â–ˆâ–ˆâ–ˆâ–ˆâ–ˆâ–ˆâ–ˆâ–ˆ  | 16/20 [00:00<00:00, 25.77it/s]Adding requests: 100%|â–ˆâ–ˆâ–ˆâ–ˆâ–ˆâ–ˆâ–ˆâ–ˆâ–ˆâ–ˆ| 20/20 [00:00<00:00, 32.58it/s]
Processed prompts:   0%|          | 0/20 [00:00<?, ?it/s, est. speed input: 0.00 toks/s, output: 0.00 toks/s]Processed prompts:   5%|â–Œ         | 1/20 [00:02<00:43,  2.30s/it, est. speed input: 255.83 toks/s, output: 0.87 toks/s]Processed prompts:  10%|â–ˆ         | 2/20 [00:11<01:54,  6.35s/it, est. speed input: 107.93 toks/s, output: 0.35 toks/s]Processed prompts:  50%|â–ˆâ–ˆâ–ˆâ–ˆâ–ˆ     | 10/20 [00:16<00:14,  1.40s/it, est. speed input: 801.63 toks/s, output: 1.19 toks/s]Processed prompts: 100%|â–ˆâ–ˆâ–ˆâ–ˆâ–ˆâ–ˆâ–ˆâ–ˆâ–ˆâ–ˆ| 20/20 [00:16<00:00,  1.40s/it, est. speed input: 1273.52 toks/s, output: 2.37 toks/s]Processed prompts: 100%|â–ˆâ–ˆâ–ˆâ–ˆâ–ˆâ–ˆâ–ˆâ–ˆâ–ˆâ–ˆ| 20/20 [00:16<00:00,  1.19it/s, est. speed input: 1273.52 toks/s, output: 2.37 toks/s]
Adding requests:   0%|          | 0/20 [00:00<?, ?it/s]Adding requests:  20%|â–ˆâ–ˆ        | 4/20 [00:00<00:00, 34.23it/s]Adding requests:  40%|â–ˆâ–ˆâ–ˆâ–ˆ      | 8/20 [00:00<00:00, 34.16it/s]Adding requests:  75%|â–ˆâ–ˆâ–ˆâ–ˆâ–ˆâ–ˆâ–ˆâ–Œ  | 15/20 [00:00<00:00, 47.05it/s]Adding requests: 100%|â–ˆâ–ˆâ–ˆâ–ˆâ–ˆâ–ˆâ–ˆâ–ˆâ–ˆâ–ˆ| 20/20 [00:00<00:00, 50.09it/s]
Processed prompts:   0%|          | 0/20 [00:00<?, ?it/s, est. speed input: 0.00 toks/s, output: 0.00 toks/s]Processed prompts:   5%|â–Œ         | 1/20 [00:07<02:20,  7.41s/it, est. speed input: 108.29 toks/s, output: 0.27 toks/s]Processed prompts:  10%|â–ˆ         | 2/20 [00:11<01:37,  5.44s/it, est. speed input: 128.52 toks/s, output: 0.35 toks/s]Processed prompts:  35%|â–ˆâ–ˆâ–ˆâ–Œ      | 7/20 [00:15<00:21,  1.65s/it, est. speed input: 594.37 toks/s, output: 0.92 toks/s]Processed prompts: 100%|â–ˆâ–ˆâ–ˆâ–ˆâ–ˆâ–ˆâ–ˆâ–ˆâ–ˆâ–ˆ| 20/20 [00:15<00:00,  1.65s/it, est. speed input: 1646.49 toks/s, output: 2.63 toks/s]Processed prompts: 100%|â–ˆâ–ˆâ–ˆâ–ˆâ–ˆâ–ˆâ–ˆâ–ˆâ–ˆâ–ˆ| 20/20 [00:15<00:00,  1.31it/s, est. speed input: 1646.49 toks/s, output: 2.63 toks/s]
Adding requests:   0%|          | 0/20 [00:00<?, ?it/s]Adding requests:  40%|â–ˆâ–ˆâ–ˆâ–ˆ      | 8/20 [00:00<00:00, 78.52it/s]Adding requests:  80%|â–ˆâ–ˆâ–ˆâ–ˆâ–ˆâ–ˆâ–ˆâ–ˆ  | 16/20 [00:00<00:00, 74.54it/s]Adding requests: 100%|â–ˆâ–ˆâ–ˆâ–ˆâ–ˆâ–ˆâ–ˆâ–ˆâ–ˆâ–ˆ| 20/20 [00:00<00:00, 79.88it/s]
Processed prompts:   0%|          | 0/20 [00:00<?, ?it/s, est. speed input: 0.00 toks/s, output: 0.00 toks/s]Processed prompts:   5%|â–Œ         | 1/20 [00:06<01:56,  6.11s/it, est. speed input: 154.69 toks/s, output: 0.33 toks/s]Processed prompts:  10%|â–ˆ         | 2/20 [00:09<01:18,  4.36s/it, est. speed input: 133.36 toks/s, output: 0.43 toks/s]Processed prompts: 100%|â–ˆâ–ˆâ–ˆâ–ˆâ–ˆâ–ˆâ–ˆâ–ˆâ–ˆâ–ˆ| 20/20 [00:09<00:00,  4.36s/it, est. speed input: 1542.28 toks/s, output: 4.31 toks/s]Processed prompts: 100%|â–ˆâ–ˆâ–ˆâ–ˆâ–ˆâ–ˆâ–ˆâ–ˆâ–ˆâ–ˆ| 20/20 [00:09<00:00,  2.16it/s, est. speed input: 1542.28 toks/s, output: 4.31 toks/s]
Adding requests:   0%|          | 0/20 [00:00<?, ?it/s]Adding requests:  45%|â–ˆâ–ˆâ–ˆâ–ˆâ–Œ     | 9/20 [00:00<00:00, 84.37it/s]Adding requests:  90%|â–ˆâ–ˆâ–ˆâ–ˆâ–ˆâ–ˆâ–ˆâ–ˆâ–ˆ | 18/20 [00:00<00:00, 61.03it/s]Adding requests: 100%|â–ˆâ–ˆâ–ˆâ–ˆâ–ˆâ–ˆâ–ˆâ–ˆâ–ˆâ–ˆ| 20/20 [00:00<00:00, 65.56it/s]
Processed prompts:   0%|          | 0/20 [00:00<?, ?it/s, est. speed input: 0.00 toks/s, output: 0.00 toks/s]Processed prompts:   5%|â–Œ         | 1/20 [00:06<01:59,  6.29s/it, est. speed input: 78.90 toks/s, output: 0.32 toks/s]Processed prompts:  10%|â–ˆ         | 2/20 [00:10<01:34,  5.25s/it, est. speed input: 115.39 toks/s, output: 0.37 toks/s]Processed prompts: 100%|â–ˆâ–ˆâ–ˆâ–ˆâ–ˆâ–ˆâ–ˆâ–ˆâ–ˆâ–ˆ| 20/20 [00:10<00:00,  5.25s/it, est. speed input: 1543.06 toks/s, output: 3.69 toks/s]Processed prompts: 100%|â–ˆâ–ˆâ–ˆâ–ˆâ–ˆâ–ˆâ–ˆâ–ˆâ–ˆâ–ˆ| 20/20 [00:10<00:00,  1.85it/s, est. speed input: 1543.06 toks/s, output: 3.69 toks/s]
Adding requests:   0%|          | 0/20 [00:00<?, ?it/s]Adding requests:  55%|â–ˆâ–ˆâ–ˆâ–ˆâ–ˆâ–Œ    | 11/20 [00:00<00:00, 108.28it/s]Adding requests: 100%|â–ˆâ–ˆâ–ˆâ–ˆâ–ˆâ–ˆâ–ˆâ–ˆâ–ˆâ–ˆ| 20/20 [00:00<00:00, 73.10it/s] 
Processed prompts:   0%|          | 0/20 [00:00<?, ?it/s, est. speed input: 0.00 toks/s, output: 0.00 toks/s]Processed prompts:   5%|â–Œ         | 1/20 [00:04<01:18,  4.13s/it, est. speed input: 242.59 toks/s, output: 0.48 toks/s]Processed prompts:  10%|â–ˆ         | 2/20 [00:07<01:09,  3.88s/it, est. speed input: 208.22 toks/s, output: 0.51 toks/s]Processed prompts:  60%|â–ˆâ–ˆâ–ˆâ–ˆâ–ˆâ–ˆ    | 12/20 [00:11<00:06,  1.33it/s, est. speed input: 1387.10 toks/s, output: 2.06 toks/s]Processed prompts: 100%|â–ˆâ–ˆâ–ˆâ–ˆâ–ˆâ–ˆâ–ˆâ–ˆâ–ˆâ–ˆ| 20/20 [00:11<00:00,  1.33it/s, est. speed input: 2000.99 toks/s, output: 3.43 toks/s]Processed prompts: 100%|â–ˆâ–ˆâ–ˆâ–ˆâ–ˆâ–ˆâ–ˆâ–ˆâ–ˆâ–ˆ| 20/20 [00:11<00:00,  1.71it/s, est. speed input: 2000.99 toks/s, output: 3.43 toks/s]
Adding requests:   0%|          | 0/20 [00:00<?, ?it/s]Adding requests:  30%|â–ˆâ–ˆâ–ˆ       | 6/20 [00:00<00:00, 37.63it/s]Adding requests:  50%|â–ˆâ–ˆâ–ˆâ–ˆâ–ˆ     | 10/20 [00:00<00:00, 13.84it/s]Adding requests: 100%|â–ˆâ–ˆâ–ˆâ–ˆâ–ˆâ–ˆâ–ˆâ–ˆâ–ˆâ–ˆ| 20/20 [00:00<00:00, 30.54it/s]Adding requests: 100%|â–ˆâ–ˆâ–ˆâ–ˆâ–ˆâ–ˆâ–ˆâ–ˆâ–ˆâ–ˆ| 20/20 [00:00<00:00, 26.98it/s]
Processed prompts:   0%|          | 0/20 [00:00<?, ?it/s, est. speed input: 0.00 toks/s, output: 0.00 toks/s]Processed prompts:   5%|â–Œ         | 1/20 [00:08<02:50,  8.95s/it, est. speed input: 74.76 toks/s, output: 0.22 toks/s]Processed prompts:  10%|â–ˆ         | 2/20 [00:14<02:04,  6.92s/it, est. speed input: 86.93 toks/s, output: 0.28 toks/s]Processed prompts:  35%|â–ˆâ–ˆâ–ˆâ–Œ      | 7/20 [00:15<00:19,  1.49s/it, est. speed input: 707.09 toks/s, output: 0.91 toks/s]Processed prompts: 100%|â–ˆâ–ˆâ–ˆâ–ˆâ–ˆâ–ˆâ–ˆâ–ˆâ–ˆâ–ˆ| 20/20 [00:15<00:00,  1.49s/it, est. speed input: 1278.79 toks/s, output: 2.59 toks/s]Processed prompts: 100%|â–ˆâ–ˆâ–ˆâ–ˆâ–ˆâ–ˆâ–ˆâ–ˆâ–ˆâ–ˆ| 20/20 [00:15<00:00,  1.30it/s, est. speed input: 1278.79 toks/s, output: 2.59 toks/s]
Adding requests:   0%|          | 0/20 [00:00<?, ?it/s]Adding requests:  25%|â–ˆâ–ˆâ–Œ       | 5/20 [00:00<00:00, 19.37it/s]Adding requests:  35%|â–ˆâ–ˆâ–ˆâ–Œ      | 7/20 [00:00<00:00, 15.76it/s]Adding requests:  55%|â–ˆâ–ˆâ–ˆâ–ˆâ–ˆâ–Œ    | 11/20 [00:00<00:00, 21.70it/s]Adding requests:  85%|â–ˆâ–ˆâ–ˆâ–ˆâ–ˆâ–ˆâ–ˆâ–ˆâ–Œ | 17/20 [00:00<00:00, 31.98it/s]Adding requests: 100%|â–ˆâ–ˆâ–ˆâ–ˆâ–ˆâ–ˆâ–ˆâ–ˆâ–ˆâ–ˆ| 20/20 [00:00<00:00, 27.73it/s]
Processed prompts:   0%|          | 0/20 [00:00<?, ?it/s, est. speed input: 0.00 toks/s, output: 0.00 toks/s]Processed prompts:   5%|â–Œ         | 1/20 [00:06<02:03,  6.51s/it, est. speed input: 133.08 toks/s, output: 0.31 toks/s]Processed prompts:  10%|â–ˆ         | 2/20 [00:11<01:44,  5.79s/it, est. speed input: 129.48 toks/s, output: 0.34 toks/s]Processed prompts:  55%|â–ˆâ–ˆâ–ˆâ–ˆâ–ˆâ–Œ    | 11/20 [00:12<00:06,  1.36it/s, est. speed input: 828.12 toks/s, output: 1.77 toks/s]Processed prompts: 100%|â–ˆâ–ˆâ–ˆâ–ˆâ–ˆâ–ˆâ–ˆâ–ˆâ–ˆâ–ˆ| 20/20 [00:12<00:00,  1.36it/s, est. speed input: 1485.69 toks/s, output: 3.22 toks/s]Processed prompts: 100%|â–ˆâ–ˆâ–ˆâ–ˆâ–ˆâ–ˆâ–ˆâ–ˆâ–ˆâ–ˆ| 20/20 [00:12<00:00,  1.61it/s, est. speed input: 1485.69 toks/s, output: 3.22 toks/s]
Adding requests:   0%|          | 0/20 [00:00<?, ?it/s]Adding requests:  30%|â–ˆâ–ˆâ–ˆ       | 6/20 [00:00<00:00, 59.14it/s]Adding requests:  70%|â–ˆâ–ˆâ–ˆâ–ˆâ–ˆâ–ˆâ–ˆ   | 14/20 [00:00<00:00, 66.31it/s]Adding requests: 100%|â–ˆâ–ˆâ–ˆâ–ˆâ–ˆâ–ˆâ–ˆâ–ˆâ–ˆâ–ˆ| 20/20 [00:00<00:00, 74.96it/s]
Processed prompts:   0%|          | 0/20 [00:00<?, ?it/s, est. speed input: 0.00 toks/s, output: 0.00 toks/s]Processed prompts:   5%|â–Œ         | 1/20 [00:06<02:05,  6.62s/it, est. speed input: 108.08 toks/s, output: 0.30 toks/s]Processed prompts:  10%|â–ˆ         | 2/20 [00:08<01:12,  4.00s/it, est. speed input: 153.31 toks/s, output: 0.46 toks/s]Processed prompts: 100%|â–ˆâ–ˆâ–ˆâ–ˆâ–ˆâ–ˆâ–ˆâ–ˆâ–ˆâ–ˆ| 20/20 [00:08<00:00,  4.00s/it, est. speed input: 1552.29 toks/s, output: 4.54 toks/s]Processed prompts: 100%|â–ˆâ–ˆâ–ˆâ–ˆâ–ˆâ–ˆâ–ˆâ–ˆâ–ˆâ–ˆ| 20/20 [00:08<00:00,  2.27it/s, est. speed input: 1552.29 toks/s, output: 4.54 toks/s]
Adding requests:   0%|          | 0/20 [00:00<?, ?it/s]Adding requests:  25%|â–ˆâ–ˆâ–Œ       | 5/20 [00:00<00:00, 43.72it/s]Adding requests:  50%|â–ˆâ–ˆâ–ˆâ–ˆâ–ˆ     | 10/20 [00:00<00:00, 31.27it/s]Adding requests:  70%|â–ˆâ–ˆâ–ˆâ–ˆâ–ˆâ–ˆâ–ˆ   | 14/20 [00:00<00:00, 31.22it/s]Adding requests: 100%|â–ˆâ–ˆâ–ˆâ–ˆâ–ˆâ–ˆâ–ˆâ–ˆâ–ˆâ–ˆ| 20/20 [00:00<00:00, 17.77it/s]Adding requests: 100%|â–ˆâ–ˆâ–ˆâ–ˆâ–ˆâ–ˆâ–ˆâ–ˆâ–ˆâ–ˆ| 20/20 [00:00<00:00, 21.25it/s]
Processed prompts:   0%|          | 0/20 [00:00<?, ?it/s, est. speed input: 0.00 toks/s, output: 0.00 toks/s]Processed prompts:   5%|â–Œ         | 1/20 [00:03<01:00,  3.20s/it, est. speed input: 151.08 toks/s, output: 0.63 toks/s]Processed prompts:  10%|â–ˆ         | 2/20 [00:12<01:58,  6.59s/it, est. speed input: 80.13 toks/s, output: 0.33 toks/s] Processed prompts:  45%|â–ˆâ–ˆâ–ˆâ–ˆâ–Œ     | 9/20 [00:15<00:15,  1.38s/it, est. speed input: 768.71 toks/s, output: 1.15 toks/s]Processed prompts:  55%|â–ˆâ–ˆâ–ˆâ–ˆâ–ˆâ–Œ    | 11/20 [00:28<00:23,  2.63s/it, est. speed input: 557.02 toks/s, output: 0.78 toks/s]Processed prompts:  90%|â–ˆâ–ˆâ–ˆâ–ˆâ–ˆâ–ˆâ–ˆâ–ˆâ–ˆ | 18/20 [00:30<00:02,  1.35s/it, est. speed input: 946.86 toks/s, output: 1.18 toks/s]Processed prompts: 100%|â–ˆâ–ˆâ–ˆâ–ˆâ–ˆâ–ˆâ–ˆâ–ˆâ–ˆâ–ˆ| 20/20 [00:30<00:00,  1.13s/it, est. speed input: 1309.77 toks/s, output: 1.29 toks/s]Processed prompts: 100%|â–ˆâ–ˆâ–ˆâ–ˆâ–ˆâ–ˆâ–ˆâ–ˆâ–ˆâ–ˆ| 20/20 [00:30<00:00,  1.13s/it, est. speed input: 1309.77 toks/s, output: 1.29 toks/s]Processed prompts: 100%|â–ˆâ–ˆâ–ˆâ–ˆâ–ˆâ–ˆâ–ˆâ–ˆâ–ˆâ–ˆ| 20/20 [00:30<00:00,  1.55s/it, est. speed input: 1309.77 toks/s, output: 1.29 toks/s]
Adding requests:   0%|          | 0/20 [00:00<?, ?it/s]Adding requests:   5%|â–Œ         | 1/20 [00:00<00:02,  7.74it/s]Adding requests:  35%|â–ˆâ–ˆâ–ˆâ–Œ      | 7/20 [00:00<00:00, 31.67it/s]Adding requests:  85%|â–ˆâ–ˆâ–ˆâ–ˆâ–ˆâ–ˆâ–ˆâ–ˆâ–Œ | 17/20 [00:00<00:00, 58.60it/s]Adding requests: 100%|â–ˆâ–ˆâ–ˆâ–ˆâ–ˆâ–ˆâ–ˆâ–ˆâ–ˆâ–ˆ| 20/20 [00:00<00:00, 53.01it/s]
Processed prompts:   0%|          | 0/20 [00:00<?, ?it/s, est. speed input: 0.00 toks/s, output: 0.00 toks/s]Processed prompts:   5%|â–Œ         | 1/20 [00:08<02:33,  8.08s/it, est. speed input: 383.63 toks/s, output: 0.25 toks/s]Processed prompts:  10%|â–ˆ         | 2/20 [00:11<01:32,  5.14s/it, est. speed input: 346.85 toks/s, output: 0.36 toks/s]Processed prompts: 100%|â–ˆâ–ˆâ–ˆâ–ˆâ–ˆâ–ˆâ–ˆâ–ˆâ–ˆâ–ˆ| 20/20 [00:11<00:00,  5.14s/it, est. speed input: 1590.11 toks/s, output: 3.58 toks/s]Processed prompts: 100%|â–ˆâ–ˆâ–ˆâ–ˆâ–ˆâ–ˆâ–ˆâ–ˆâ–ˆâ–ˆ| 20/20 [00:11<00:00,  1.79it/s, est. speed input: 1590.11 toks/s, output: 3.58 toks/s]
Adding requests:   0%|          | 0/20 [00:00<?, ?it/s]Adding requests:  20%|â–ˆâ–ˆ        | 4/20 [00:00<00:00, 18.09it/s]Adding requests:  65%|â–ˆâ–ˆâ–ˆâ–ˆâ–ˆâ–ˆâ–Œ   | 13/20 [00:00<00:00, 44.95it/s]Adding requests:  95%|â–ˆâ–ˆâ–ˆâ–ˆâ–ˆâ–ˆâ–ˆâ–ˆâ–ˆâ–Œ| 19/20 [00:00<00:00, 49.12it/s]Adding requests: 100%|â–ˆâ–ˆâ–ˆâ–ˆâ–ˆâ–ˆâ–ˆâ–ˆâ–ˆâ–ˆ| 20/20 [00:00<00:00, 45.17it/s]
Processed prompts:   0%|          | 0/20 [00:00<?, ?it/s, est. speed input: 0.00 toks/s, output: 0.00 toks/s]Processed prompts:   5%|â–Œ         | 1/20 [00:07<02:29,  7.89s/it, est. speed input: 72.36 toks/s, output: 0.25 toks/s]Processed prompts:  10%|â–ˆ         | 2/20 [00:10<01:27,  4.88s/it, est. speed input: 164.92 toks/s, output: 0.38 toks/s]Processed prompts:  35%|â–ˆâ–ˆâ–ˆâ–Œ      | 7/20 [00:13<00:18,  1.43s/it, est. speed input: 662.04 toks/s, output: 1.02 toks/s]Processed prompts:  55%|â–ˆâ–ˆâ–ˆâ–ˆâ–ˆâ–Œ    | 11/20 [00:16<00:09,  1.04s/it, est. speed input: 1250.46 toks/s, output: 1.36 toks/s]Processed prompts: 100%|â–ˆâ–ˆâ–ˆâ–ˆâ–ˆâ–ˆâ–ˆâ–ˆâ–ˆâ–ˆ| 20/20 [00:16<00:00,  2.34it/s, est. speed input: 1728.91 toks/s, output: 3.52 toks/s]Processed prompts: 100%|â–ˆâ–ˆâ–ˆâ–ˆâ–ˆâ–ˆâ–ˆâ–ˆâ–ˆâ–ˆ| 20/20 [00:16<00:00,  2.34it/s, est. speed input: 1728.91 toks/s, output: 3.52 toks/s]Processed prompts: 100%|â–ˆâ–ˆâ–ˆâ–ˆâ–ˆâ–ˆâ–ˆâ–ˆâ–ˆâ–ˆ| 20/20 [00:16<00:00,  1.21it/s, est. speed input: 1728.91 toks/s, output: 3.52 toks/s]
Adding requests:   0%|          | 0/20 [00:00<?, ?it/s]Adding requests:  40%|â–ˆâ–ˆâ–ˆâ–ˆ      | 8/20 [00:00<00:00, 58.89it/s]Adding requests:  85%|â–ˆâ–ˆâ–ˆâ–ˆâ–ˆâ–ˆâ–ˆâ–ˆâ–Œ | 17/20 [00:00<00:00, 73.24it/s]Adding requests: 100%|â–ˆâ–ˆâ–ˆâ–ˆâ–ˆâ–ˆâ–ˆâ–ˆâ–ˆâ–ˆ| 20/20 [00:00<00:00, 55.10it/s]
Processed prompts:   0%|          | 0/20 [00:00<?, ?it/s, est. speed input: 0.00 toks/s, output: 0.00 toks/s]Processed prompts:   5%|â–Œ         | 1/20 [00:05<01:52,  5.94s/it, est. speed input: 106.87 toks/s, output: 0.34 toks/s]Processed prompts:  10%|â–ˆ         | 2/20 [00:11<01:47,  5.98s/it, est. speed input: 107.95 toks/s, output: 0.33 toks/s]Processed prompts:  60%|â–ˆâ–ˆâ–ˆâ–ˆâ–ˆâ–ˆ    | 12/20 [00:14<00:06,  1.16it/s, est. speed input: 612.59 toks/s, output: 1.66 toks/s]Processed prompts: 100%|â–ˆâ–ˆâ–ˆâ–ˆâ–ˆâ–ˆâ–ˆâ–ˆâ–ˆâ–ˆ| 20/20 [00:14<00:00,  2.30it/s, est. speed input: 1852.62 toks/s, output: 2.74 toks/s]Processed prompts: 100%|â–ˆâ–ˆâ–ˆâ–ˆâ–ˆâ–ˆâ–ˆâ–ˆâ–ˆâ–ˆ| 20/20 [00:14<00:00,  2.30it/s, est. speed input: 1852.62 toks/s, output: 2.74 toks/s]Processed prompts: 100%|â–ˆâ–ˆâ–ˆâ–ˆâ–ˆâ–ˆâ–ˆâ–ˆâ–ˆâ–ˆ| 20/20 [00:14<00:00,  1.37it/s, est. speed input: 1852.62 toks/s, output: 2.74 toks/s]
Adding requests:   0%|          | 0/20 [00:00<?, ?it/s]Adding requests:  20%|â–ˆâ–ˆ        | 4/20 [00:00<00:00, 38.97it/s]Adding requests:  55%|â–ˆâ–ˆâ–ˆâ–ˆâ–ˆâ–Œ    | 11/20 [00:00<00:00, 36.86it/s]Adding requests: 100%|â–ˆâ–ˆâ–ˆâ–ˆâ–ˆâ–ˆâ–ˆâ–ˆâ–ˆâ–ˆ| 20/20 [00:00<00:00, 52.22it/s]
Processed prompts:   0%|          | 0/20 [00:00<?, ?it/s, est. speed input: 0.00 toks/s, output: 0.00 toks/s]Processed prompts:   5%|â–Œ         | 1/20 [00:09<02:57,  9.36s/it, est. speed input: 194.68 toks/s, output: 0.21 toks/s]Processed prompts:  10%|â–ˆ         | 2/20 [00:13<01:51,  6.20s/it, est. speed input: 180.41 toks/s, output: 0.30 toks/s]Processed prompts:  55%|â–ˆâ–ˆâ–ˆâ–ˆâ–ˆâ–Œ    | 11/20 [00:13<00:06,  1.35it/s, est. speed input: 971.01 toks/s, output: 1.63 toks/s]Processed prompts: 100%|â–ˆâ–ˆâ–ˆâ–ˆâ–ˆâ–ˆâ–ˆâ–ˆâ–ˆâ–ˆ| 20/20 [00:13<00:00,  1.35it/s, est. speed input: 1374.14 toks/s, output: 2.96 toks/s]Processed prompts: 100%|â–ˆâ–ˆâ–ˆâ–ˆâ–ˆâ–ˆâ–ˆâ–ˆâ–ˆâ–ˆ| 20/20 [00:13<00:00,  1.48it/s, est. speed input: 1374.14 toks/s, output: 2.96 toks/s]
Adding requests:   0%|          | 0/20 [00:00<?, ?it/s]Adding requests:  45%|â–ˆâ–ˆâ–ˆâ–ˆâ–Œ     | 9/20 [00:00<00:00, 23.85it/s]Adding requests:  90%|â–ˆâ–ˆâ–ˆâ–ˆâ–ˆâ–ˆâ–ˆâ–ˆâ–ˆ | 18/20 [00:00<00:00, 41.21it/s]Adding requests: 100%|â–ˆâ–ˆâ–ˆâ–ˆâ–ˆâ–ˆâ–ˆâ–ˆâ–ˆâ–ˆ| 20/20 [00:00<00:00, 34.34it/s]
Processed prompts:   0%|          | 0/20 [00:00<?, ?it/s, est. speed input: 0.00 toks/s, output: 0.00 toks/s]Processed prompts:   5%|â–Œ         | 1/20 [00:02<00:48,  2.56s/it, est. speed input: 191.35 toks/s, output: 0.78 toks/s]Processed prompts:  10%|â–ˆ         | 2/20 [00:11<01:49,  6.06s/it, est. speed input: 79.93 toks/s, output: 0.36 toks/s] Processed prompts:  45%|â–ˆâ–ˆâ–ˆâ–ˆâ–Œ     | 9/20 [00:14<00:14,  1.29s/it, est. speed input: 850.41 toks/s, output: 1.25 toks/s]Processed prompts:  55%|â–ˆâ–ˆâ–ˆâ–ˆâ–ˆâ–Œ    | 11/20 [00:19<00:14,  1.62s/it, est. speed input: 681.10 toks/s, output: 1.13 toks/s]Processed prompts: 100%|â–ˆâ–ˆâ–ˆâ–ˆâ–ˆâ–ˆâ–ˆâ–ˆâ–ˆâ–ˆ| 20/20 [00:19<00:00,  1.62s/it, est. speed input: 1485.99 toks/s, output: 2.05 toks/s]Processed prompts: 100%|â–ˆâ–ˆâ–ˆâ–ˆâ–ˆâ–ˆâ–ˆâ–ˆâ–ˆâ–ˆ| 20/20 [00:19<00:00,  1.02it/s, est. speed input: 1485.99 toks/s, output: 2.05 toks/s]
Adding requests:   0%|          | 0/20 [00:00<?, ?it/s]Adding requests:  45%|â–ˆâ–ˆâ–ˆâ–ˆâ–Œ     | 9/20 [00:00<00:00, 47.16it/s]Adding requests:  75%|â–ˆâ–ˆâ–ˆâ–ˆâ–ˆâ–ˆâ–ˆâ–Œ  | 15/20 [00:00<00:00, 52.10it/s]Adding requests: 100%|â–ˆâ–ˆâ–ˆâ–ˆâ–ˆâ–ˆâ–ˆâ–ˆâ–ˆâ–ˆ| 20/20 [00:00<00:00, 55.95it/s]
Processed prompts:   0%|          | 0/20 [00:00<?, ?it/s, est. speed input: 0.00 toks/s, output: 0.00 toks/s]Processed prompts:   5%|â–Œ         | 1/20 [00:06<02:03,  6.51s/it, est. speed input: 53.03 toks/s, output: 0.31 toks/s]Processed prompts:  10%|â–ˆ         | 2/20 [00:11<01:44,  5.79s/it, est. speed input: 116.50 toks/s, output: 0.34 toks/s]Processed prompts:  50%|â–ˆâ–ˆâ–ˆâ–ˆâ–ˆ     | 10/20 [00:12<00:08,  1.17it/s, est. speed input: 689.20 toks/s, output: 1.57 toks/s]Processed prompts: 100%|â–ˆâ–ˆâ–ˆâ–ˆâ–ˆâ–ˆâ–ˆâ–ˆâ–ˆâ–ˆ| 20/20 [00:12<00:00,  1.17it/s, est. speed input: 1442.16 toks/s, output: 3.14 toks/s]Processed prompts: 100%|â–ˆâ–ˆâ–ˆâ–ˆâ–ˆâ–ˆâ–ˆâ–ˆâ–ˆâ–ˆ| 20/20 [00:12<00:00,  1.57it/s, est. speed input: 1442.16 toks/s, output: 3.14 toks/s]
Adding requests:   0%|          | 0/20 [00:00<?, ?it/s]Adding requests:  45%|â–ˆâ–ˆâ–ˆâ–ˆâ–Œ     | 9/20 [00:00<00:00, 86.38it/s]Adding requests: 100%|â–ˆâ–ˆâ–ˆâ–ˆâ–ˆâ–ˆâ–ˆâ–ˆâ–ˆâ–ˆ| 20/20 [00:00<00:00, 91.90it/s]Adding requests: 100%|â–ˆâ–ˆâ–ˆâ–ˆâ–ˆâ–ˆâ–ˆâ–ˆâ–ˆâ–ˆ| 20/20 [00:00<00:00, 91.00it/s]
Processed prompts:   0%|          | 0/20 [00:00<?, ?it/s, est. speed input: 0.00 toks/s, output: 0.00 toks/s]Processed prompts:   5%|â–Œ         | 1/20 [00:05<01:39,  5.24s/it, est. speed input: 121.83 toks/s, output: 0.38 toks/s]Processed prompts:  10%|â–ˆ         | 2/20 [00:07<01:04,  3.56s/it, est. speed input: 135.10 toks/s, output: 0.53 toks/s]Processed prompts: 100%|â–ˆâ–ˆâ–ˆâ–ˆâ–ˆâ–ˆâ–ˆâ–ˆâ–ˆâ–ˆ| 20/20 [00:07<00:00,  3.56s/it, est. speed input: 1679.62 toks/s, output: 5.24 toks/s]Processed prompts: 100%|â–ˆâ–ˆâ–ˆâ–ˆâ–ˆâ–ˆâ–ˆâ–ˆâ–ˆâ–ˆ| 20/20 [00:07<00:00,  2.62it/s, est. speed input: 1679.62 toks/s, output: 5.24 toks/s]
Adding requests:   0%|          | 0/20 [00:00<?, ?it/s]Adding requests:  40%|â–ˆâ–ˆâ–ˆâ–ˆ      | 8/20 [00:00<00:00, 74.67it/s]Adding requests:  80%|â–ˆâ–ˆâ–ˆâ–ˆâ–ˆâ–ˆâ–ˆâ–ˆ  | 16/20 [00:00<00:00, 63.89it/s]Adding requests: 100%|â–ˆâ–ˆâ–ˆâ–ˆâ–ˆâ–ˆâ–ˆâ–ˆâ–ˆâ–ˆ| 20/20 [00:00<00:00, 60.49it/s]
Processed prompts:   0%|          | 0/20 [00:00<?, ?it/s, est. speed input: 0.00 toks/s, output: 0.00 toks/s]Processed prompts:   5%|â–Œ         | 1/20 [00:05<01:45,  5.53s/it, est. speed input: 161.72 toks/s, output: 0.36 toks/s]Processed prompts:  10%|â–ˆ         | 2/20 [00:12<01:57,  6.51s/it, est. speed input: 117.54 toks/s, output: 0.31 toks/s]Processed prompts: 100%|â–ˆâ–ˆâ–ˆâ–ˆâ–ˆâ–ˆâ–ˆâ–ˆâ–ˆâ–ˆ| 20/20 [00:12<00:00,  6.51s/it, est. speed input: 1355.03 toks/s, output: 3.14 toks/s]Processed prompts: 100%|â–ˆâ–ˆâ–ˆâ–ˆâ–ˆâ–ˆâ–ˆâ–ˆâ–ˆâ–ˆ| 20/20 [00:12<00:00,  1.57it/s, est. speed input: 1355.03 toks/s, output: 3.14 toks/s]
Adding requests:   0%|          | 0/20 [00:00<?, ?it/s]Adding requests:  25%|â–ˆâ–ˆâ–Œ       | 5/20 [00:00<00:00, 30.66it/s]Adding requests:  55%|â–ˆâ–ˆâ–ˆâ–ˆâ–ˆâ–Œ    | 11/20 [00:00<00:00, 42.53it/s]Adding requests: 100%|â–ˆâ–ˆâ–ˆâ–ˆâ–ˆâ–ˆâ–ˆâ–ˆâ–ˆâ–ˆ| 20/20 [00:00<00:00, 39.32it/s]Adding requests: 100%|â–ˆâ–ˆâ–ˆâ–ˆâ–ˆâ–ˆâ–ˆâ–ˆâ–ˆâ–ˆ| 20/20 [00:00<00:00, 38.89it/s]
Processed prompts:   0%|          | 0/20 [00:00<?, ?it/s, est. speed input: 0.00 toks/s, output: 0.00 toks/s]Processed prompts:   5%|â–Œ         | 1/20 [00:06<02:01,  6.39s/it, est. speed input: 112.76 toks/s, output: 0.31 toks/s]Processed prompts:  10%|â–ˆ         | 2/20 [00:08<01:14,  4.12s/it, est. speed input: 218.61 toks/s, output: 0.45 toks/s]Processed prompts:  40%|â–ˆâ–ˆâ–ˆâ–ˆ      | 8/20 [00:21<00:28,  2.40s/it, est. speed input: 809.49 toks/s, output: 0.75 toks/s]Processed prompts: 100%|â–ˆâ–ˆâ–ˆâ–ˆâ–ˆâ–ˆâ–ˆâ–ˆâ–ˆâ–ˆ| 20/20 [00:21<00:00,  2.40s/it, est. speed input: 1485.88 toks/s, output: 1.88 toks/s]Processed prompts: 100%|â–ˆâ–ˆâ–ˆâ–ˆâ–ˆâ–ˆâ–ˆâ–ˆâ–ˆâ–ˆ| 20/20 [00:21<00:00,  1.06s/it, est. speed input: 1485.88 toks/s, output: 1.88 toks/s]
Adding requests:   0%|          | 0/20 [00:00<?, ?it/s]Adding requests:  35%|â–ˆâ–ˆâ–ˆâ–Œ      | 7/20 [00:00<00:00, 66.01it/s]Adding requests:  70%|â–ˆâ–ˆâ–ˆâ–ˆâ–ˆâ–ˆâ–ˆ   | 14/20 [00:00<00:00, 61.02it/s]Adding requests: 100%|â–ˆâ–ˆâ–ˆâ–ˆâ–ˆâ–ˆâ–ˆâ–ˆâ–ˆâ–ˆ| 20/20 [00:00<00:00, 65.71it/s]
Processed prompts:   0%|          | 0/20 [00:00<?, ?it/s, est. speed input: 0.00 toks/s, output: 0.00 toks/s]Processed prompts:   5%|â–Œ         | 1/20 [00:07<02:13,  7.05s/it, est. speed input: 233.92 toks/s, output: 0.28 toks/s]Processed prompts:  10%|â–ˆ         | 2/20 [00:11<01:37,  5.42s/it, est. speed input: 196.29 toks/s, output: 0.35 toks/s]Processed prompts: 100%|â–ˆâ–ˆâ–ˆâ–ˆâ–ˆâ–ˆâ–ˆâ–ˆâ–ˆâ–ˆ| 20/20 [00:11<00:00,  5.42s/it, est. speed input: 1493.08 toks/s, output: 3.53 toks/s]Processed prompts: 100%|â–ˆâ–ˆâ–ˆâ–ˆâ–ˆâ–ˆâ–ˆâ–ˆâ–ˆâ–ˆ| 20/20 [00:11<00:00,  1.76it/s, est. speed input: 1493.08 toks/s, output: 3.53 toks/s]
Adding requests:   0%|          | 0/20 [00:00<?, ?it/s]Adding requests:  45%|â–ˆâ–ˆâ–ˆâ–ˆâ–Œ     | 9/20 [00:00<00:00, 80.99it/s]Adding requests: 100%|â–ˆâ–ˆâ–ˆâ–ˆâ–ˆâ–ˆâ–ˆâ–ˆâ–ˆâ–ˆ| 20/20 [00:00<00:00, 91.65it/s]Adding requests: 100%|â–ˆâ–ˆâ–ˆâ–ˆâ–ˆâ–ˆâ–ˆâ–ˆâ–ˆâ–ˆ| 20/20 [00:00<00:00, 89.94it/s]
Processed prompts:   0%|          | 0/20 [00:00<?, ?it/s, est. speed input: 0.00 toks/s, output: 0.00 toks/s]Processed prompts:   5%|â–Œ         | 1/20 [00:06<01:54,  6.04s/it, est. speed input: 60.14 toks/s, output: 0.33 toks/s]Processed prompts:  10%|â–ˆ         | 2/20 [00:09<01:16,  4.26s/it, est. speed input: 110.96 toks/s, output: 0.44 toks/s]Processed prompts: 100%|â–ˆâ–ˆâ–ˆâ–ˆâ–ˆâ–ˆâ–ˆâ–ˆâ–ˆâ–ˆ| 20/20 [00:09<00:00,  4.26s/it, est. speed input: 1470.40 toks/s, output: 4.41 toks/s]Processed prompts: 100%|â–ˆâ–ˆâ–ˆâ–ˆâ–ˆâ–ˆâ–ˆâ–ˆâ–ˆâ–ˆ| 20/20 [00:09<00:00,  2.20it/s, est. speed input: 1470.40 toks/s, output: 4.41 toks/s]
Adding requests:   0%|          | 0/20 [00:00<?, ?it/s]Adding requests:  25%|â–ˆâ–ˆâ–Œ       | 5/20 [00:00<00:00, 44.16it/s]Adding requests:  55%|â–ˆâ–ˆâ–ˆâ–ˆâ–ˆâ–Œ    | 11/20 [00:00<00:00, 52.43it/s]Adding requests:  85%|â–ˆâ–ˆâ–ˆâ–ˆâ–ˆâ–ˆâ–ˆâ–ˆâ–Œ | 17/20 [00:00<00:00, 27.44it/s]Adding requests: 100%|â–ˆâ–ˆâ–ˆâ–ˆâ–ˆâ–ˆâ–ˆâ–ˆâ–ˆâ–ˆ| 20/20 [00:00<00:00, 33.87it/s]
Processed prompts:   0%|          | 0/20 [00:00<?, ?it/s, est. speed input: 0.00 toks/s, output: 0.00 toks/s]Processed prompts:   5%|â–Œ         | 1/20 [00:06<02:10,  6.86s/it, est. speed input: 158.85 toks/s, output: 0.29 toks/s]Processed prompts:  10%|â–ˆ         | 2/20 [00:16<02:37,  8.73s/it, est. speed input: 102.05 toks/s, output: 0.24 toks/s]Processed prompts:  50%|â–ˆâ–ˆâ–ˆâ–ˆâ–ˆ     | 10/20 [00:20<00:14,  1.48s/it, est. speed input: 473.28 toks/s, output: 1.00 toks/s]Processed prompts: 100%|â–ˆâ–ˆâ–ˆâ–ˆâ–ˆâ–ˆâ–ˆâ–ˆâ–ˆâ–ˆ| 20/20 [00:20<00:00,  1.48s/it, est. speed input: 1160.60 toks/s, output: 1.99 toks/s]Processed prompts: 100%|â–ˆâ–ˆâ–ˆâ–ˆâ–ˆâ–ˆâ–ˆâ–ˆâ–ˆâ–ˆ| 20/20 [00:20<00:00,  1.00s/it, est. speed input: 1160.60 toks/s, output: 1.99 toks/s]
Adding requests:   0%|          | 0/20 [00:00<?, ?it/s]Adding requests:  55%|â–ˆâ–ˆâ–ˆâ–ˆâ–ˆâ–Œ    | 11/20 [00:00<00:00, 102.15it/s]Adding requests: 100%|â–ˆâ–ˆâ–ˆâ–ˆâ–ˆâ–ˆâ–ˆâ–ˆâ–ˆâ–ˆ| 20/20 [00:00<00:00, 82.85it/s] 
Processed prompts:   0%|          | 0/20 [00:00<?, ?it/s, est. speed input: 0.00 toks/s, output: 0.00 toks/s]Processed prompts:   5%|â–Œ         | 1/20 [00:04<01:34,  4.98s/it, est. speed input: 119.74 toks/s, output: 0.40 toks/s]Processed prompts:  10%|â–ˆ         | 2/20 [00:08<01:18,  4.33s/it, est. speed input: 122.22 toks/s, output: 0.45 toks/s]Processed prompts: 100%|â–ˆâ–ˆâ–ˆâ–ˆâ–ˆâ–ˆâ–ˆâ–ˆâ–ˆâ–ˆ| 20/20 [00:08<00:00,  4.33s/it, est. speed input: 1581.02 toks/s, output: 4.50 toks/s]Processed prompts: 100%|â–ˆâ–ˆâ–ˆâ–ˆâ–ˆâ–ˆâ–ˆâ–ˆâ–ˆâ–ˆ| 20/20 [00:08<00:00,  2.25it/s, est. speed input: 1581.02 toks/s, output: 4.50 toks/s]
Adding requests:   0%|          | 0/20 [00:00<?, ?it/s]Adding requests:  50%|â–ˆâ–ˆâ–ˆâ–ˆâ–ˆ     | 10/20 [00:00<00:00, 94.88it/s]Adding requests: 100%|â–ˆâ–ˆâ–ˆâ–ˆâ–ˆâ–ˆâ–ˆâ–ˆâ–ˆâ–ˆ| 20/20 [00:00<00:00, 30.22it/s]Adding requests: 100%|â–ˆâ–ˆâ–ˆâ–ˆâ–ˆâ–ˆâ–ˆâ–ˆâ–ˆâ–ˆ| 20/20 [00:00<00:00, 33.64it/s]
Processed prompts:   0%|          | 0/20 [00:00<?, ?it/s, est. speed input: 0.00 toks/s, output: 0.00 toks/s]Processed prompts:   5%|â–Œ         | 1/20 [00:04<01:27,  4.60s/it, est. speed input: 111.17 toks/s, output: 0.44 toks/s]Processed prompts:  10%|â–ˆ         | 2/20 [00:14<02:16,  7.57s/it, est. speed input: 94.24 toks/s, output: 0.28 toks/s] Processed prompts:  75%|â–ˆâ–ˆâ–ˆâ–ˆâ–ˆâ–ˆâ–ˆâ–Œ  | 15/20 [00:16<00:04,  1.25it/s, est. speed input: 575.16 toks/s, output: 1.81 toks/s]Processed prompts: 100%|â–ˆâ–ˆâ–ˆâ–ˆâ–ˆâ–ˆâ–ˆâ–ˆâ–ˆâ–ˆ| 20/20 [00:16<00:00,  1.25it/s, est. speed input: 1272.44 toks/s, output: 2.41 toks/s]Processed prompts: 100%|â–ˆâ–ˆâ–ˆâ–ˆâ–ˆâ–ˆâ–ˆâ–ˆâ–ˆâ–ˆ| 20/20 [00:16<00:00,  1.20it/s, est. speed input: 1272.44 toks/s, output: 2.41 toks/s]
Adding requests:   0%|          | 0/20 [00:00<?, ?it/s]Adding requests:  25%|â–ˆâ–ˆâ–Œ       | 5/20 [00:00<00:00, 27.09it/s]Adding requests:  75%|â–ˆâ–ˆâ–ˆâ–ˆâ–ˆâ–ˆâ–ˆâ–Œ  | 15/20 [00:00<00:00, 56.03it/s]Adding requests: 100%|â–ˆâ–ˆâ–ˆâ–ˆâ–ˆâ–ˆâ–ˆâ–ˆâ–ˆâ–ˆ| 20/20 [00:00<00:00, 56.98it/s]
Processed prompts:   0%|          | 0/20 [00:00<?, ?it/s, est. speed input: 0.00 toks/s, output: 0.00 toks/s]Processed prompts:   5%|â–Œ         | 1/20 [00:07<02:18,  7.26s/it, est. speed input: 58.37 toks/s, output: 0.28 toks/s]Processed prompts:  10%|â–ˆ         | 2/20 [00:12<01:46,  5.92s/it, est. speed input: 63.06 toks/s, output: 0.33 toks/s]Processed prompts: 100%|â–ˆâ–ˆâ–ˆâ–ˆâ–ˆâ–ˆâ–ˆâ–ˆâ–ˆâ–ˆ| 20/20 [00:12<00:00,  2.68it/s, est. speed input: 1372.71 toks/s, output: 3.24 toks/s]Processed prompts: 100%|â–ˆâ–ˆâ–ˆâ–ˆâ–ˆâ–ˆâ–ˆâ–ˆâ–ˆâ–ˆ| 20/20 [00:12<00:00,  2.68it/s, est. speed input: 1372.71 toks/s, output: 3.24 toks/s]Processed prompts: 100%|â–ˆâ–ˆâ–ˆâ–ˆâ–ˆâ–ˆâ–ˆâ–ˆâ–ˆâ–ˆ| 20/20 [00:12<00:00,  1.62it/s, est. speed input: 1372.71 toks/s, output: 3.24 toks/s]
Adding requests:   0%|          | 0/20 [00:00<?, ?it/s]Adding requests:  10%|â–ˆ         | 2/20 [00:00<00:01, 16.63it/s]Adding requests:  45%|â–ˆâ–ˆâ–ˆâ–ˆâ–Œ     | 9/20 [00:00<00:00, 44.56it/s]Adding requests:  80%|â–ˆâ–ˆâ–ˆâ–ˆâ–ˆâ–ˆâ–ˆâ–ˆ  | 16/20 [00:00<00:00, 54.94it/s]Adding requests: 100%|â–ˆâ–ˆâ–ˆâ–ˆâ–ˆâ–ˆâ–ˆâ–ˆâ–ˆâ–ˆ| 20/20 [00:00<00:00, 51.48it/s]
Processed prompts:   0%|          | 0/20 [00:00<?, ?it/s, est. speed input: 0.00 toks/s, output: 0.00 toks/s]Processed prompts:   5%|â–Œ         | 1/20 [00:07<02:18,  7.27s/it, est. speed input: 113.80 toks/s, output: 0.28 toks/s]Processed prompts:  10%|â–ˆ         | 2/20 [00:12<01:50,  6.13s/it, est. speed input: 346.62 toks/s, output: 0.32 toks/s]Processed prompts:  40%|â–ˆâ–ˆâ–ˆâ–ˆ      | 8/20 [00:14<00:14,  1.24s/it, est. speed input: 659.65 toks/s, output: 1.12 toks/s]Processed prompts: 100%|â–ˆâ–ˆâ–ˆâ–ˆâ–ˆâ–ˆâ–ˆâ–ˆâ–ˆâ–ˆ| 20/20 [00:14<00:00,  1.24s/it, est. speed input: 1338.95 toks/s, output: 2.81 toks/s]Processed prompts: 100%|â–ˆâ–ˆâ–ˆâ–ˆâ–ˆâ–ˆâ–ˆâ–ˆâ–ˆâ–ˆ| 20/20 [00:14<00:00,  1.40it/s, est. speed input: 1338.95 toks/s, output: 2.81 toks/s]
Adding requests:   0%|          | 0/20 [00:00<?, ?it/s]Adding requests:  25%|â–ˆâ–ˆâ–Œ       | 5/20 [00:00<00:00, 32.83it/s]Adding requests:  45%|â–ˆâ–ˆâ–ˆâ–ˆâ–Œ     | 9/20 [00:00<00:00, 23.41it/s]Adding requests:  95%|â–ˆâ–ˆâ–ˆâ–ˆâ–ˆâ–ˆâ–ˆâ–ˆâ–ˆâ–Œ| 19/20 [00:00<00:00, 44.09it/s]Adding requests: 100%|â–ˆâ–ˆâ–ˆâ–ˆâ–ˆâ–ˆâ–ˆâ–ˆâ–ˆâ–ˆ| 20/20 [00:00<00:00, 40.01it/s]
Processed prompts:   0%|          | 0/20 [00:00<?, ?it/s, est. speed input: 0.00 toks/s, output: 0.00 toks/s]Processed prompts:   5%|â–Œ         | 1/20 [00:10<03:23, 10.71s/it, est. speed input: 78.16 toks/s, output: 0.19 toks/s]Processed prompts:  10%|â–ˆ         | 2/20 [00:14<01:56,  6.48s/it, est. speed input: 90.27 toks/s, output: 0.28 toks/s]Processed prompts:  45%|â–ˆâ–ˆâ–ˆâ–ˆâ–Œ     | 9/20 [00:17<00:15,  1.39s/it, est. speed input: 751.45 toks/s, output: 1.01 toks/s]Processed prompts: 100%|â–ˆâ–ˆâ–ˆâ–ˆâ–ˆâ–ˆâ–ˆâ–ˆâ–ˆâ–ˆ| 20/20 [00:17<00:00,  1.39s/it, est. speed input: 1266.91 toks/s, output: 2.24 toks/s]Processed prompts: 100%|â–ˆâ–ˆâ–ˆâ–ˆâ–ˆâ–ˆâ–ˆâ–ˆâ–ˆâ–ˆ| 20/20 [00:17<00:00,  1.12it/s, est. speed input: 1266.91 toks/s, output: 2.24 toks/s]
Adding requests:   0%|          | 0/20 [00:00<?, ?it/s]Adding requests:  40%|â–ˆâ–ˆâ–ˆâ–ˆ      | 8/20 [00:00<00:00, 34.97it/s]Adding requests:  85%|â–ˆâ–ˆâ–ˆâ–ˆâ–ˆâ–ˆâ–ˆâ–ˆâ–Œ | 17/20 [00:00<00:00, 55.41it/s]Adding requests: 100%|â–ˆâ–ˆâ–ˆâ–ˆâ–ˆâ–ˆâ–ˆâ–ˆâ–ˆâ–ˆ| 20/20 [00:00<00:00, 54.38it/s]
Processed prompts:   0%|          | 0/20 [00:00<?, ?it/s, est. speed input: 0.00 toks/s, output: 0.00 toks/s]Processed prompts:   5%|â–Œ         | 1/20 [00:07<02:21,  7.43s/it, est. speed input: 64.07 toks/s, output: 0.27 toks/s]Processed prompts:  10%|â–ˆ         | 2/20 [00:12<01:53,  6.28s/it, est. speed input: 84.82 toks/s, output: 0.31 toks/s]Processed prompts:  40%|â–ˆâ–ˆâ–ˆâ–ˆ      | 8/20 [00:14<00:14,  1.23s/it, est. speed input: 709.01 toks/s, output: 1.12 toks/s]Processed prompts: 100%|â–ˆâ–ˆâ–ˆâ–ˆâ–ˆâ–ˆâ–ˆâ–ˆâ–ˆâ–ˆ| 20/20 [00:14<00:00,  1.23s/it, est. speed input: 1381.14 toks/s, output: 2.80 toks/s]Processed prompts: 100%|â–ˆâ–ˆâ–ˆâ–ˆâ–ˆâ–ˆâ–ˆâ–ˆâ–ˆâ–ˆ| 20/20 [00:14<00:00,  1.40it/s, est. speed input: 1381.14 toks/s, output: 2.80 toks/s]
Adding requests:   0%|          | 0/20 [00:00<?, ?it/s]Adding requests:  15%|â–ˆâ–Œ        | 3/20 [00:00<00:00, 24.00it/s]Adding requests:  55%|â–ˆâ–ˆâ–ˆâ–ˆâ–ˆâ–Œ    | 11/20 [00:00<00:00, 53.84it/s]Adding requests:  90%|â–ˆâ–ˆâ–ˆâ–ˆâ–ˆâ–ˆâ–ˆâ–ˆâ–ˆ | 18/20 [00:00<00:00, 59.15it/s]Adding requests: 100%|â–ˆâ–ˆâ–ˆâ–ˆâ–ˆâ–ˆâ–ˆâ–ˆâ–ˆâ–ˆ| 20/20 [00:00<00:00, 54.60it/s]
Processed prompts:   0%|          | 0/20 [00:00<?, ?it/s, est. speed input: 0.00 toks/s, output: 0.00 toks/s]Processed prompts:   5%|â–Œ         | 1/20 [00:05<01:35,  5.03s/it, est. speed input: 109.64 toks/s, output: 0.40 toks/s]Processed prompts:  10%|â–ˆ         | 2/20 [00:08<01:10,  3.89s/it, est. speed input: 131.59 toks/s, output: 0.49 toks/s]Processed prompts: 100%|â–ˆâ–ˆâ–ˆâ–ˆâ–ˆâ–ˆâ–ˆâ–ˆâ–ˆâ–ˆ| 20/20 [00:08<00:00,  3.89s/it, est. speed input: 2254.62 toks/s, output: 4.91 toks/s]Processed prompts: 100%|â–ˆâ–ˆâ–ˆâ–ˆâ–ˆâ–ˆâ–ˆâ–ˆâ–ˆâ–ˆ| 20/20 [00:08<00:00,  2.45it/s, est. speed input: 2254.62 toks/s, output: 4.91 toks/s]
Adding requests:   0%|          | 0/20 [00:00<?, ?it/s]Adding requests:  25%|â–ˆâ–ˆâ–Œ       | 5/20 [00:00<00:00, 43.30it/s]Adding requests:  50%|â–ˆâ–ˆâ–ˆâ–ˆâ–ˆ     | 10/20 [00:00<00:00, 44.63it/s]Adding requests:  90%|â–ˆâ–ˆâ–ˆâ–ˆâ–ˆâ–ˆâ–ˆâ–ˆâ–ˆ | 18/20 [00:00<00:00, 54.58it/s]Adding requests: 100%|â–ˆâ–ˆâ–ˆâ–ˆâ–ˆâ–ˆâ–ˆâ–ˆâ–ˆâ–ˆ| 20/20 [00:00<00:00, 52.19it/s]
Processed prompts:   0%|          | 0/20 [00:00<?, ?it/s, est. speed input: 0.00 toks/s, output: 0.00 toks/s]Processed prompts:   5%|â–Œ         | 1/20 [00:04<01:18,  4.12s/it, est. speed input: 167.54 toks/s, output: 0.48 toks/s]Processed prompts:  10%|â–ˆ         | 2/20 [00:07<01:05,  3.63s/it, est. speed input: 168.96 toks/s, output: 0.54 toks/s]Processed prompts:  40%|â–ˆâ–ˆâ–ˆâ–ˆ      | 8/20 [00:09<00:11,  1.04it/s, est. speed input: 1314.18 toks/s, output: 1.60 toks/s]Processed prompts:  80%|â–ˆâ–ˆâ–ˆâ–ˆâ–ˆâ–ˆâ–ˆâ–ˆ  | 16/20 [00:12<00:02,  1.73it/s, est. speed input: 1351.22 toks/s, output: 2.52 toks/s]Processed prompts: 100%|â–ˆâ–ˆâ–ˆâ–ˆâ–ˆâ–ˆâ–ˆâ–ˆâ–ˆâ–ˆ| 20/20 [00:12<00:00,  1.73it/s, est. speed input: 2291.83 toks/s, output: 3.15 toks/s]Processed prompts: 100%|â–ˆâ–ˆâ–ˆâ–ˆâ–ˆâ–ˆâ–ˆâ–ˆâ–ˆâ–ˆ| 20/20 [00:12<00:00,  1.58it/s, est. speed input: 2291.83 toks/s, output: 3.15 toks/s]
Adding requests:   0%|          | 0/20 [00:00<?, ?it/s]Adding requests:  35%|â–ˆâ–ˆâ–ˆâ–Œ      | 7/20 [00:00<00:00, 58.02it/s]Adding requests:  75%|â–ˆâ–ˆâ–ˆâ–ˆâ–ˆâ–ˆâ–ˆâ–Œ  | 15/20 [00:00<00:00, 65.89it/s]Adding requests: 100%|â–ˆâ–ˆâ–ˆâ–ˆâ–ˆâ–ˆâ–ˆâ–ˆâ–ˆâ–ˆ| 20/20 [00:00<00:00, 65.48it/s]
Processed prompts:   0%|          | 0/20 [00:00<?, ?it/s, est. speed input: 0.00 toks/s, output: 0.00 toks/s]Processed prompts:   5%|â–Œ         | 1/20 [00:05<01:41,  5.36s/it, est. speed input: 289.85 toks/s, output: 0.37 toks/s]Processed prompts:  10%|â–ˆ         | 2/20 [00:09<01:22,  4.56s/it, est. speed input: 244.62 toks/s, output: 0.43 toks/s]Processed prompts: 100%|â–ˆâ–ˆâ–ˆâ–ˆâ–ˆâ–ˆâ–ˆâ–ˆâ–ˆâ–ˆ| 20/20 [00:09<00:00,  4.56s/it, est. speed input: 1662.41 toks/s, output: 4.26 toks/s]Processed prompts: 100%|â–ˆâ–ˆâ–ˆâ–ˆâ–ˆâ–ˆâ–ˆâ–ˆâ–ˆâ–ˆ| 20/20 [00:09<00:00,  2.13it/s, est. speed input: 1662.41 toks/s, output: 4.26 toks/s]
Adding requests:   0%|          | 0/20 [00:00<?, ?it/s]Adding requests:   5%|â–Œ         | 1/20 [00:00<00:02,  8.45it/s]Adding requests:  20%|â–ˆâ–ˆ        | 4/20 [00:00<00:01, 13.74it/s]Adding requests:  50%|â–ˆâ–ˆâ–ˆâ–ˆâ–ˆ     | 10/20 [00:00<00:00, 22.95it/s]Adding requests: 100%|â–ˆâ–ˆâ–ˆâ–ˆâ–ˆâ–ˆâ–ˆâ–ˆâ–ˆâ–ˆ| 20/20 [00:00<00:00, 34.83it/s]
Processed prompts:   0%|          | 0/20 [00:00<?, ?it/s, est. speed input: 0.00 toks/s, output: 0.00 toks/s]Processed prompts:   5%|â–Œ         | 1/20 [00:10<03:19, 10.50s/it, est. speed input: 311.67 toks/s, output: 0.19 toks/s]Processed prompts:  10%|â–ˆ         | 2/20 [00:17<02:33,  8.54s/it, est. speed input: 225.16 toks/s, output: 0.23 toks/s]Processed prompts:  35%|â–ˆâ–ˆâ–ˆâ–Œ      | 7/20 [00:20<00:26,  2.02s/it, est. speed input: 584.32 toks/s, output: 0.70 toks/s]Processed prompts: 100%|â–ˆâ–ˆâ–ˆâ–ˆâ–ˆâ–ˆâ–ˆâ–ˆâ–ˆâ–ˆ| 20/20 [00:20<00:00,  2.02s/it, est. speed input: 1233.79 toks/s, output: 1.99 toks/s]Processed prompts: 100%|â–ˆâ–ˆâ–ˆâ–ˆâ–ˆâ–ˆâ–ˆâ–ˆâ–ˆâ–ˆ| 20/20 [00:20<00:00,  1.00s/it, est. speed input: 1233.79 toks/s, output: 1.99 toks/s]
Adding requests:   0%|          | 0/20 [00:00<?, ?it/s]Adding requests:  35%|â–ˆâ–ˆâ–ˆâ–Œ      | 7/20 [00:00<00:00, 66.86it/s]Adding requests:  70%|â–ˆâ–ˆâ–ˆâ–ˆâ–ˆâ–ˆâ–ˆ   | 14/20 [00:00<00:00, 23.37it/s]Adding requests:  95%|â–ˆâ–ˆâ–ˆâ–ˆâ–ˆâ–ˆâ–ˆâ–ˆâ–ˆâ–Œ| 19/20 [00:01<00:00, 13.21it/s]Adding requests: 100%|â–ˆâ–ˆâ–ˆâ–ˆâ–ˆâ–ˆâ–ˆâ–ˆâ–ˆâ–ˆ| 20/20 [00:01<00:00, 16.28it/s]
Processed prompts:   0%|          | 0/20 [00:00<?, ?it/s, est. speed input: 0.00 toks/s, output: 0.00 toks/s]Processed prompts:   5%|â–Œ         | 1/20 [00:10<03:28, 10.96s/it, est. speed input: 58.01 toks/s, output: 0.18 toks/s]Processed prompts:  10%|â–ˆ         | 2/20 [00:14<01:59,  6.66s/it, est. speed input: 110.66 toks/s, output: 0.27 toks/s]Processed prompts:  40%|â–ˆâ–ˆâ–ˆâ–ˆ      | 8/20 [00:17<00:17,  1.49s/it, est. speed input: 817.54 toks/s, output: 0.92 toks/s]Processed prompts:  60%|â–ˆâ–ˆâ–ˆâ–ˆâ–ˆâ–ˆ    | 12/20 [00:34<00:21,  2.71s/it, est. speed input: 508.97 toks/s, output: 0.70 toks/s]Processed prompts:  70%|â–ˆâ–ˆâ–ˆâ–ˆâ–ˆâ–ˆâ–ˆ   | 14/20 [00:36<00:14,  2.37s/it, est. speed input: 715.33 toks/s, output: 0.76 toks/s]Processed prompts:  95%|â–ˆâ–ˆâ–ˆâ–ˆâ–ˆâ–ˆâ–ˆâ–ˆâ–ˆâ–Œ| 19/20 [00:40<00:01,  1.63s/it, est. speed input: 1104.84 toks/s, output: 0.93 toks/s]Processed prompts: 100%|â–ˆâ–ˆâ–ˆâ–ˆâ–ˆâ–ˆâ–ˆâ–ˆâ–ˆâ–ˆ| 20/20 [00:40<00:00,  1.63s/it, est. speed input: 1313.54 toks/s, output: 0.98 toks/s]Processed prompts: 100%|â–ˆâ–ˆâ–ˆâ–ˆâ–ˆâ–ˆâ–ˆâ–ˆâ–ˆâ–ˆ| 20/20 [00:40<00:00,  2.04s/it, est. speed input: 1313.54 toks/s, output: 0.98 toks/s]
Adding requests:   0%|          | 0/20 [00:00<?, ?it/s]Adding requests:  10%|â–ˆ         | 2/20 [00:00<00:00, 19.55it/s]Adding requests:  50%|â–ˆâ–ˆâ–ˆâ–ˆâ–ˆ     | 10/20 [00:00<00:00, 31.56it/s]Adding requests:  75%|â–ˆâ–ˆâ–ˆâ–ˆâ–ˆâ–ˆâ–ˆâ–Œ  | 15/20 [00:00<00:00, 36.24it/s]Adding requests: 100%|â–ˆâ–ˆâ–ˆâ–ˆâ–ˆâ–ˆâ–ˆâ–ˆâ–ˆâ–ˆ| 20/20 [00:00<00:00, 40.98it/s]
Processed prompts:   0%|          | 0/20 [00:00<?, ?it/s, est. speed input: 0.00 toks/s, output: 0.00 toks/s]Processed prompts:   5%|â–Œ         | 1/20 [00:02<00:52,  2.76s/it, est. speed input: 135.41 toks/s, output: 0.72 toks/s]Processed prompts:  10%|â–ˆ         | 2/20 [00:10<01:40,  5.59s/it, est. speed input: 554.10 toks/s, output: 0.39 toks/s]Processed prompts:  50%|â–ˆâ–ˆâ–ˆâ–ˆâ–ˆ     | 10/20 [00:11<00:08,  1.16it/s, est. speed input: 1374.72 toks/s, output: 1.72 toks/s]Processed prompts: 100%|â–ˆâ–ˆâ–ˆâ–ˆâ–ˆâ–ˆâ–ˆâ–ˆâ–ˆâ–ˆ| 20/20 [00:11<00:00,  1.16it/s, est. speed input: 2328.06 toks/s, output: 3.44 toks/s]Processed prompts: 100%|â–ˆâ–ˆâ–ˆâ–ˆâ–ˆâ–ˆâ–ˆâ–ˆâ–ˆâ–ˆ| 20/20 [00:11<00:00,  1.72it/s, est. speed input: 2328.06 toks/s, output: 3.44 toks/s]
Adding requests:   0%|          | 0/20 [00:00<?, ?it/s]Adding requests:  40%|â–ˆâ–ˆâ–ˆâ–ˆ      | 8/20 [00:00<00:00, 79.66it/s]Adding requests:  80%|â–ˆâ–ˆâ–ˆâ–ˆâ–ˆâ–ˆâ–ˆâ–ˆ  | 16/20 [00:00<00:00, 55.02it/s]Adding requests: 100%|â–ˆâ–ˆâ–ˆâ–ˆâ–ˆâ–ˆâ–ˆâ–ˆâ–ˆâ–ˆ| 20/20 [00:00<00:00, 65.12it/s]
Processed prompts:   0%|          | 0/20 [00:00<?, ?it/s, est. speed input: 0.00 toks/s, output: 0.00 toks/s]Processed prompts:   5%|â–Œ         | 1/20 [00:06<02:01,  6.40s/it, est. speed input: 109.08 toks/s, output: 0.31 toks/s]Processed prompts:  10%|â–ˆ         | 2/20 [00:10<01:32,  5.12s/it, est. speed input: 133.07 toks/s, output: 0.38 toks/s]Processed prompts:  60%|â–ˆâ–ˆâ–ˆâ–ˆâ–ˆâ–ˆ    | 12/20 [00:11<00:05,  1.53it/s, est. speed input: 866.13 toks/s, output: 2.03 toks/s]Processed prompts: 100%|â–ˆâ–ˆâ–ˆâ–ˆâ–ˆâ–ˆâ–ˆâ–ˆâ–ˆâ–ˆ| 20/20 [00:11<00:00,  1.53it/s, est. speed input: 1646.72 toks/s, output: 3.38 toks/s]Processed prompts: 100%|â–ˆâ–ˆâ–ˆâ–ˆâ–ˆâ–ˆâ–ˆâ–ˆâ–ˆâ–ˆ| 20/20 [00:11<00:00,  1.69it/s, est. speed input: 1646.72 toks/s, output: 3.38 toks/s]
Adding requests:   0%|          | 0/20 [00:00<?, ?it/s]Adding requests:   5%|â–Œ         | 1/20 [00:00<00:02,  7.62it/s]Adding requests:  25%|â–ˆâ–ˆâ–Œ       | 5/20 [00:00<00:02,  6.27it/s]Adding requests:  80%|â–ˆâ–ˆâ–ˆâ–ˆâ–ˆâ–ˆâ–ˆâ–ˆ  | 16/20 [00:00<00:00, 22.44it/s]Adding requests: 100%|â–ˆâ–ˆâ–ˆâ–ˆâ–ˆâ–ˆâ–ˆâ–ˆâ–ˆâ–ˆ| 20/20 [00:00<00:00, 21.22it/s]
Processed prompts:   0%|          | 0/20 [00:00<?, ?it/s, est. speed input: 0.00 toks/s, output: 0.00 toks/s]Processed prompts:   5%|â–Œ         | 1/20 [00:18<06:00, 18.99s/it, est. speed input: 161.90 toks/s, output: 0.11 toks/s]Processed prompts:  10%|â–ˆ         | 2/20 [00:21<02:48,  9.34s/it, est. speed input: 161.71 toks/s, output: 0.19 toks/s]Processed prompts:  25%|â–ˆâ–ˆâ–Œ       | 5/20 [00:27<01:01,  4.10s/it, est. speed input: 752.50 toks/s, output: 0.36 toks/s]Processed prompts: 100%|â–ˆâ–ˆâ–ˆâ–ˆâ–ˆâ–ˆâ–ˆâ–ˆâ–ˆâ–ˆ| 20/20 [00:27<00:00,  4.10s/it, est. speed input: 1177.28 toks/s, output: 1.45 toks/s]Processed prompts: 100%|â–ˆâ–ˆâ–ˆâ–ˆâ–ˆâ–ˆâ–ˆâ–ˆâ–ˆâ–ˆ| 20/20 [00:27<00:00,  1.38s/it, est. speed input: 1177.28 toks/s, output: 1.45 toks/s]
Adding requests:   0%|          | 0/20 [00:00<?, ?it/s]Adding requests:  50%|â–ˆâ–ˆâ–ˆâ–ˆâ–ˆ     | 10/20 [00:00<00:00, 96.21it/s]Adding requests: 100%|â–ˆâ–ˆâ–ˆâ–ˆâ–ˆâ–ˆâ–ˆâ–ˆâ–ˆâ–ˆ| 20/20 [00:00<00:00, 81.83it/s]Adding requests: 100%|â–ˆâ–ˆâ–ˆâ–ˆâ–ˆâ–ˆâ–ˆâ–ˆâ–ˆâ–ˆ| 20/20 [00:00<00:00, 83.62it/s]
Processed prompts:   0%|          | 0/20 [00:00<?, ?it/s, est. speed input: 0.00 toks/s, output: 0.00 toks/s]Processed prompts:   5%|â–Œ         | 1/20 [00:05<01:43,  5.42s/it, est. speed input: 86.50 toks/s, output: 0.37 toks/s]Processed prompts:  10%|â–ˆ         | 2/20 [00:08<01:13,  4.07s/it, est. speed input: 137.97 toks/s, output: 0.47 toks/s]Processed prompts: 100%|â–ˆâ–ˆâ–ˆâ–ˆâ–ˆâ–ˆâ–ˆâ–ˆâ–ˆâ–ˆ| 20/20 [00:08<00:00,  4.07s/it, est. speed input: 1786.71 toks/s, output: 4.67 toks/s]Processed prompts: 100%|â–ˆâ–ˆâ–ˆâ–ˆâ–ˆâ–ˆâ–ˆâ–ˆâ–ˆâ–ˆ| 20/20 [00:08<00:00,  2.33it/s, est. speed input: 1786.71 toks/s, output: 4.67 toks/s]
Adding requests:   0%|          | 0/20 [00:00<?, ?it/s]Adding requests:  15%|â–ˆâ–Œ        | 3/20 [00:00<00:00, 29.10it/s]Adding requests:  60%|â–ˆâ–ˆâ–ˆâ–ˆâ–ˆâ–ˆ    | 12/20 [00:00<00:00, 15.78it/s]Adding requests:  75%|â–ˆâ–ˆâ–ˆâ–ˆâ–ˆâ–ˆâ–ˆâ–Œ  | 15/20 [00:00<00:00, 17.85it/s]Adding requests:  90%|â–ˆâ–ˆâ–ˆâ–ˆâ–ˆâ–ˆâ–ˆâ–ˆâ–ˆ | 18/20 [00:01<00:00, 15.68it/s]Adding requests: 100%|â–ˆâ–ˆâ–ˆâ–ˆâ–ˆâ–ˆâ–ˆâ–ˆâ–ˆâ–ˆ| 20/20 [00:01<00:00, 17.99it/s]
Processed prompts:   0%|          | 0/20 [00:00<?, ?it/s, est. speed input: 0.00 toks/s, output: 0.00 toks/s]Processed prompts:   5%|â–Œ         | 1/20 [00:20<06:24, 20.22s/it, est. speed input: 422.85 toks/s, output: 0.10 toks/s]Processed prompts:  55%|â–ˆâ–ˆâ–ˆâ–ˆâ–ˆâ–Œ    | 11/20 [00:24<00:15,  1.77s/it, est. speed input: 657.93 toks/s, output: 0.88 toks/s]Processed prompts:  60%|â–ˆâ–ˆâ–ˆâ–ˆâ–ˆâ–ˆ    | 12/20 [00:33<00:20,  2.54s/it, est. speed input: 900.82 toks/s, output: 0.72 toks/s]Processed prompts:  65%|â–ˆâ–ˆâ–ˆâ–ˆâ–ˆâ–ˆâ–Œ   | 13/20 [00:34<00:16,  2.39s/it, est. speed input: 949.86 toks/s, output: 0.75 toks/s]Processed prompts: 100%|â–ˆâ–ˆâ–ˆâ–ˆâ–ˆâ–ˆâ–ˆâ–ˆâ–ˆâ–ˆ| 20/20 [00:34<00:00,  2.39s/it, est. speed input: 1257.22 toks/s, output: 1.15 toks/s]Processed prompts: 100%|â–ˆâ–ˆâ–ˆâ–ˆâ–ˆâ–ˆâ–ˆâ–ˆâ–ˆâ–ˆ| 20/20 [00:34<00:00,  1.74s/it, est. speed input: 1257.22 toks/s, output: 1.15 toks/s]
Adding requests:   0%|          | 0/20 [00:00<?, ?it/s]Adding requests:  50%|â–ˆâ–ˆâ–ˆâ–ˆâ–ˆ     | 10/20 [00:00<00:00, 99.84it/s]Adding requests: 100%|â–ˆâ–ˆâ–ˆâ–ˆâ–ˆâ–ˆâ–ˆâ–ˆâ–ˆâ–ˆ| 20/20 [00:00<00:00, 43.60it/s]Adding requests: 100%|â–ˆâ–ˆâ–ˆâ–ˆâ–ˆâ–ˆâ–ˆâ–ˆâ–ˆâ–ˆ| 20/20 [00:00<00:00, 47.60it/s]
Processed prompts:   0%|          | 0/20 [00:00<?, ?it/s, est. speed input: 0.00 toks/s, output: 0.00 toks/s]Processed prompts:   5%|â–Œ         | 1/20 [00:04<01:30,  4.79s/it, est. speed input: 101.56 toks/s, output: 0.42 toks/s]Processed prompts:  10%|â–ˆ         | 2/20 [00:11<01:51,  6.19s/it, est. speed input: 81.50 toks/s, output: 0.33 toks/s] Processed prompts:  65%|â–ˆâ–ˆâ–ˆâ–ˆâ–ˆâ–ˆâ–Œ   | 13/20 [00:14<00:05,  1.20it/s, est. speed input: 933.56 toks/s, output: 1.76 toks/s]Processed prompts:  75%|â–ˆâ–ˆâ–ˆâ–ˆâ–ˆâ–ˆâ–ˆâ–Œ  | 15/20 [00:15<00:03,  1.36it/s, est. speed input: 1497.63 toks/s, output: 1.95 toks/s]Processed prompts: 100%|â–ˆâ–ˆâ–ˆâ–ˆâ–ˆâ–ˆâ–ˆâ–ˆâ–ˆâ–ˆ| 20/20 [00:15<00:00,  1.36it/s, est. speed input: 1678.27 toks/s, output: 2.59 toks/s]Processed prompts: 100%|â–ˆâ–ˆâ–ˆâ–ˆâ–ˆâ–ˆâ–ˆâ–ˆâ–ˆâ–ˆ| 20/20 [00:15<00:00,  1.30it/s, est. speed input: 1678.27 toks/s, output: 2.59 toks/s]
Adding requests:   0%|          | 0/20 [00:00<?, ?it/s]Adding requests:  35%|â–ˆâ–ˆâ–ˆâ–Œ      | 7/20 [00:00<00:00, 57.53it/s]Adding requests:  65%|â–ˆâ–ˆâ–ˆâ–ˆâ–ˆâ–ˆâ–Œ   | 13/20 [00:00<00:00, 46.80it/s]Adding requests:  90%|â–ˆâ–ˆâ–ˆâ–ˆâ–ˆâ–ˆâ–ˆâ–ˆâ–ˆ | 18/20 [00:00<00:00, 37.82it/s]Adding requests: 100%|â–ˆâ–ˆâ–ˆâ–ˆâ–ˆâ–ˆâ–ˆâ–ˆâ–ˆâ–ˆ| 20/20 [00:00<00:00, 42.11it/s]
Processed prompts:   0%|          | 0/20 [00:00<?, ?it/s, est. speed input: 0.00 toks/s, output: 0.00 toks/s]Processed prompts:   5%|â–Œ         | 1/20 [00:06<01:57,  6.16s/it, est. speed input: 91.42 toks/s, output: 0.32 toks/s]Processed prompts:  10%|â–ˆ         | 2/20 [00:13<02:05,  6.97s/it, est. speed input: 80.22 toks/s, output: 0.29 toks/s]Processed prompts:  65%|â–ˆâ–ˆâ–ˆâ–ˆâ–ˆâ–ˆâ–Œ   | 13/20 [00:15<00:05,  1.26it/s, est. speed input: 1064.92 toks/s, output: 1.73 toks/s]Processed prompts: 100%|â–ˆâ–ˆâ–ˆâ–ˆâ–ˆâ–ˆâ–ˆâ–ˆâ–ˆâ–ˆ| 20/20 [00:15<00:00,  1.26it/s, est. speed input: 1706.07 toks/s, output: 2.65 toks/s]Processed prompts: 100%|â–ˆâ–ˆâ–ˆâ–ˆâ–ˆâ–ˆâ–ˆâ–ˆâ–ˆâ–ˆ| 20/20 [00:15<00:00,  1.33it/s, est. speed input: 1706.07 toks/s, output: 2.65 toks/s]
Adding requests:   0%|          | 0/20 [00:00<?, ?it/s]Adding requests:  35%|â–ˆâ–ˆâ–ˆâ–Œ      | 7/20 [00:00<00:00, 42.48it/s]Adding requests:  70%|â–ˆâ–ˆâ–ˆâ–ˆâ–ˆâ–ˆâ–ˆ   | 14/20 [00:00<00:00, 53.37it/s]Adding requests: 100%|â–ˆâ–ˆâ–ˆâ–ˆâ–ˆâ–ˆâ–ˆâ–ˆâ–ˆâ–ˆ| 20/20 [00:00<00:00, 54.60it/s]
Processed prompts:   0%|          | 0/20 [00:00<?, ?it/s, est. speed input: 0.00 toks/s, output: 0.00 toks/s]Processed prompts:   5%|â–Œ         | 1/20 [00:06<02:09,  6.79s/it, est. speed input: 70.84 toks/s, output: 0.29 toks/s]Processed prompts:  10%|â–ˆ         | 2/20 [00:12<01:51,  6.20s/it, est. speed input: 130.63 toks/s, output: 0.32 toks/s]Processed prompts:  40%|â–ˆâ–ˆâ–ˆâ–ˆ      | 8/20 [00:13<00:14,  1.20s/it, est. speed input: 662.93 toks/s, output: 1.16 toks/s]Processed prompts: 100%|â–ˆâ–ˆâ–ˆâ–ˆâ–ˆâ–ˆâ–ˆâ–ˆâ–ˆâ–ˆ| 20/20 [00:13<00:00,  1.20s/it, est. speed input: 1450.00 toks/s, output: 2.90 toks/s]Processed prompts: 100%|â–ˆâ–ˆâ–ˆâ–ˆâ–ˆâ–ˆâ–ˆâ–ˆâ–ˆâ–ˆ| 20/20 [00:13<00:00,  1.45it/s, est. speed input: 1450.00 toks/s, output: 2.90 toks/s]
Adding requests:   0%|          | 0/20 [00:00<?, ?it/s]Adding requests:  20%|â–ˆâ–ˆ        | 4/20 [00:00<00:01, 15.83it/s]Adding requests:  65%|â–ˆâ–ˆâ–ˆâ–ˆâ–ˆâ–ˆâ–Œ   | 13/20 [00:00<00:00, 41.66it/s]Adding requests: 100%|â–ˆâ–ˆâ–ˆâ–ˆâ–ˆâ–ˆâ–ˆâ–ˆâ–ˆâ–ˆ| 20/20 [00:00<00:00, 43.90it/s]
Processed prompts:   0%|          | 0/20 [00:00<?, ?it/s, est. speed input: 0.00 toks/s, output: 0.00 toks/s]Processed prompts:   5%|â–Œ         | 1/20 [00:08<02:41,  8.52s/it, est. speed input: 80.68 toks/s, output: 0.23 toks/s]Processed prompts:  10%|â–ˆ         | 2/20 [00:13<01:52,  6.23s/it, est. speed input: 240.15 toks/s, output: 0.30 toks/s]Processed prompts:  20%|â–ˆâ–ˆ        | 4/20 [00:15<00:50,  3.18s/it, est. speed input: 624.40 toks/s, output: 0.50 toks/s]Processed prompts:  80%|â–ˆâ–ˆâ–ˆâ–ˆâ–ˆâ–ˆâ–ˆâ–ˆ  | 16/20 [00:17<00:02,  1.66it/s, est. speed input: 1029.94 toks/s, output: 1.84 toks/s]Processed prompts: 100%|â–ˆâ–ˆâ–ˆâ–ˆâ–ˆâ–ˆâ–ˆâ–ˆâ–ˆâ–ˆ| 20/20 [00:17<00:00,  1.66it/s, est. speed input: 1637.46 toks/s, output: 2.30 toks/s]Processed prompts: 100%|â–ˆâ–ˆâ–ˆâ–ˆâ–ˆâ–ˆâ–ˆâ–ˆâ–ˆâ–ˆ| 20/20 [00:17<00:00,  1.15it/s, est. speed input: 1637.46 toks/s, output: 2.30 toks/s]
Adding requests:   0%|          | 0/20 [00:00<?, ?it/s]Adding requests:  50%|â–ˆâ–ˆâ–ˆâ–ˆâ–ˆ     | 10/20 [00:00<00:00, 65.80it/s]Adding requests:  85%|â–ˆâ–ˆâ–ˆâ–ˆâ–ˆâ–ˆâ–ˆâ–ˆâ–Œ | 17/20 [00:00<00:00, 61.48it/s]Adding requests: 100%|â–ˆâ–ˆâ–ˆâ–ˆâ–ˆâ–ˆâ–ˆâ–ˆâ–ˆâ–ˆ| 20/20 [00:00<00:00, 66.40it/s]
Processed prompts:   0%|          | 0/20 [00:00<?, ?it/s, est. speed input: 0.00 toks/s, output: 0.00 toks/s]Processed prompts:   5%|â–Œ         | 1/20 [00:01<00:33,  1.78s/it, est. speed input: 325.55 toks/s, output: 1.12 toks/s]Processed prompts:  10%|â–ˆ         | 2/20 [00:08<01:25,  4.75s/it, est. speed input: 147.43 toks/s, output: 0.46 toks/s]Processed prompts:  40%|â–ˆâ–ˆâ–ˆâ–ˆ      | 8/20 [00:10<00:12,  1.02s/it, est. speed input: 446.83 toks/s, output: 1.56 toks/s]Processed prompts: 100%|â–ˆâ–ˆâ–ˆâ–ˆâ–ˆâ–ˆâ–ˆâ–ˆâ–ˆâ–ˆ| 20/20 [00:10<00:00,  1.02s/it, est. speed input: 1550.14 toks/s, output: 3.89 toks/s]Processed prompts: 100%|â–ˆâ–ˆâ–ˆâ–ˆâ–ˆâ–ˆâ–ˆâ–ˆâ–ˆâ–ˆ| 20/20 [00:10<00:00,  1.94it/s, est. speed input: 1550.14 toks/s, output: 3.89 toks/s]
Adding requests:   0%|          | 0/20 [00:00<?, ?it/s]Adding requests:  10%|â–ˆ         | 2/20 [00:00<00:01, 16.47it/s]Adding requests:  45%|â–ˆâ–ˆâ–ˆâ–ˆâ–Œ     | 9/20 [00:00<00:00, 44.30it/s]Adding requests:  90%|â–ˆâ–ˆâ–ˆâ–ˆâ–ˆâ–ˆâ–ˆâ–ˆâ–ˆ | 18/20 [00:00<00:00, 61.89it/s]Adding requests: 100%|â–ˆâ–ˆâ–ˆâ–ˆâ–ˆâ–ˆâ–ˆâ–ˆâ–ˆâ–ˆ| 20/20 [00:00<00:00, 56.25it/s]
Processed prompts:   0%|          | 0/20 [00:00<?, ?it/s, est. speed input: 0.00 toks/s, output: 0.00 toks/s]Processed prompts:   5%|â–Œ         | 1/20 [00:06<02:04,  6.55s/it, est. speed input: 75.59 toks/s, output: 0.31 toks/s]Processed prompts:  10%|â–ˆ         | 2/20 [00:11<01:42,  5.72s/it, est. speed input: 307.51 toks/s, output: 0.34 toks/s]Processed prompts:  50%|â–ˆâ–ˆâ–ˆâ–ˆâ–ˆ     | 10/20 [00:11<00:07,  1.30it/s, est. speed input: 759.24 toks/s, output: 1.67 toks/s]Processed prompts: 100%|â–ˆâ–ˆâ–ˆâ–ˆâ–ˆâ–ˆâ–ˆâ–ˆâ–ˆâ–ˆ| 20/20 [00:11<00:00,  1.30it/s, est. speed input: 1472.68 toks/s, output: 3.34 toks/s]Processed prompts: 100%|â–ˆâ–ˆâ–ˆâ–ˆâ–ˆâ–ˆâ–ˆâ–ˆâ–ˆâ–ˆ| 20/20 [00:11<00:00,  1.67it/s, est. speed input: 1472.68 toks/s, output: 3.34 toks/s]
Adding requests:   0%|          | 0/20 [00:00<?, ?it/s]Adding requests:  15%|â–ˆâ–Œ        | 3/20 [00:00<00:00, 27.99it/s]Adding requests:  80%|â–ˆâ–ˆâ–ˆâ–ˆâ–ˆâ–ˆâ–ˆâ–ˆ  | 16/20 [00:00<00:00, 78.68it/s]Adding requests: 100%|â–ˆâ–ˆâ–ˆâ–ˆâ–ˆâ–ˆâ–ˆâ–ˆâ–ˆâ–ˆ| 20/20 [00:00<00:00, 75.12it/s]
Processed prompts:   0%|          | 0/20 [00:00<?, ?it/s, est. speed input: 0.00 toks/s, output: 0.00 toks/s]Processed prompts:   5%|â–Œ         | 1/20 [00:05<01:47,  5.64s/it, est. speed input: 107.79 toks/s, output: 0.35 toks/s]Processed prompts:  10%|â–ˆ         | 2/20 [00:08<01:15,  4.20s/it, est. speed input: 149.36 toks/s, output: 0.45 toks/s]Processed prompts: 100%|â–ˆâ–ˆâ–ˆâ–ˆâ–ˆâ–ˆâ–ˆâ–ˆâ–ˆâ–ˆ| 20/20 [00:08<00:00,  4.20s/it, est. speed input: 1792.79 toks/s, output: 4.52 toks/s]Processed prompts: 100%|â–ˆâ–ˆâ–ˆâ–ˆâ–ˆâ–ˆâ–ˆâ–ˆâ–ˆâ–ˆ| 20/20 [00:08<00:00,  2.26it/s, est. speed input: 1792.79 toks/s, output: 4.52 toks/s]
Adding requests:   0%|          | 0/20 [00:00<?, ?it/s]Adding requests:  40%|â–ˆâ–ˆâ–ˆâ–ˆ      | 8/20 [00:00<00:00, 76.56it/s]Adding requests:  90%|â–ˆâ–ˆâ–ˆâ–ˆâ–ˆâ–ˆâ–ˆâ–ˆâ–ˆ | 18/20 [00:00<00:00, 82.19it/s]Adding requests: 100%|â–ˆâ–ˆâ–ˆâ–ˆâ–ˆâ–ˆâ–ˆâ–ˆâ–ˆâ–ˆ| 20/20 [00:00<00:00, 61.86it/s]
Processed prompts:   0%|          | 0/20 [00:00<?, ?it/s, est. speed input: 0.00 toks/s, output: 0.00 toks/s]Processed prompts:   5%|â–Œ         | 1/20 [00:05<01:41,  5.35s/it, est. speed input: 142.46 toks/s, output: 0.37 toks/s]Processed prompts:  10%|â–ˆ         | 2/20 [00:12<01:50,  6.17s/it, est. speed input: 113.85 toks/s, output: 0.33 toks/s]Processed prompts: 100%|â–ˆâ–ˆâ–ˆâ–ˆâ–ˆâ–ˆâ–ˆâ–ˆâ–ˆâ–ˆ| 20/20 [00:12<00:00,  6.17s/it, est. speed input: 1545.13 toks/s, output: 3.30 toks/s]Processed prompts: 100%|â–ˆâ–ˆâ–ˆâ–ˆâ–ˆâ–ˆâ–ˆâ–ˆâ–ˆâ–ˆ| 20/20 [00:12<00:00,  1.65it/s, est. speed input: 1545.13 toks/s, output: 3.30 toks/s]
Adding requests:   0%|          | 0/20 [00:00<?, ?it/s]Adding requests:  35%|â–ˆâ–ˆâ–ˆâ–Œ      | 7/20 [00:00<00:00, 58.30it/s]Adding requests:  65%|â–ˆâ–ˆâ–ˆâ–ˆâ–ˆâ–ˆâ–Œ   | 13/20 [00:00<00:00, 46.57it/s]Adding requests: 100%|â–ˆâ–ˆâ–ˆâ–ˆâ–ˆâ–ˆâ–ˆâ–ˆâ–ˆâ–ˆ| 20/20 [00:00<00:00, 59.34it/s]
Processed prompts:   0%|          | 0/20 [00:00<?, ?it/s, est. speed input: 0.00 toks/s, output: 0.00 toks/s]Processed prompts:   5%|â–Œ         | 1/20 [00:06<02:10,  6.84s/it, est. speed input: 134.73 toks/s, output: 0.29 toks/s]Processed prompts:  10%|â–ˆ         | 2/20 [00:09<01:15,  4.17s/it, est. speed input: 157.32 toks/s, output: 0.44 toks/s]Processed prompts: 100%|â–ˆâ–ˆâ–ˆâ–ˆâ–ˆâ–ˆâ–ˆâ–ˆâ–ˆâ–ˆ| 20/20 [00:09<00:00,  4.17s/it, est. speed input: 2193.43 toks/s, output: 4.36 toks/s]Processed prompts: 100%|â–ˆâ–ˆâ–ˆâ–ˆâ–ˆâ–ˆâ–ˆâ–ˆâ–ˆâ–ˆ| 20/20 [00:09<00:00,  2.18it/s, est. speed input: 2193.43 toks/s, output: 4.36 toks/s]
Adding requests:   0%|          | 0/19 [00:00<?, ?it/s]Adding requests:  37%|â–ˆâ–ˆâ–ˆâ–‹      | 7/19 [00:00<00:00, 65.77it/s]Adding requests:  89%|â–ˆâ–ˆâ–ˆâ–ˆâ–ˆâ–ˆâ–ˆâ–ˆâ–‰ | 17/19 [00:00<00:00, 83.49it/s]Adding requests: 100%|â–ˆâ–ˆâ–ˆâ–ˆâ–ˆâ–ˆâ–ˆâ–ˆâ–ˆâ–ˆ| 19/19 [00:00<00:00, 83.72it/s]
Processed prompts:   0%|          | 0/19 [00:00<?, ?it/s, est. speed input: 0.00 toks/s, output: 0.00 toks/s]Processed prompts:   5%|â–Œ         | 1/19 [00:06<01:49,  6.09s/it, est. speed input: 167.05 toks/s, output: 0.33 toks/s]Processed prompts:  11%|â–ˆ         | 2/19 [00:08<01:09,  4.07s/it, est. speed input: 225.88 toks/s, output: 0.46 toks/s]Processed prompts: 100%|â–ˆâ–ˆâ–ˆâ–ˆâ–ˆâ–ˆâ–ˆâ–ˆâ–ˆâ–ˆ| 19/19 [00:08<00:00,  4.07s/it, est. speed input: 1712.22 toks/s, output: 4.33 toks/s]Processed prompts: 100%|â–ˆâ–ˆâ–ˆâ–ˆâ–ˆâ–ˆâ–ˆâ–ˆâ–ˆâ–ˆ| 19/19 [00:08<00:00,  2.17it/s, est. speed input: 1712.22 toks/s, output: 4.33 toks/s]
[1;36m(VllmWorker TP0 pid=3048865)[0;0m INFO 09-12 02:26:45 [multiproc_executor.py:520] Parent process exited, terminating worker
[1;36m(VllmWorker TP2 pid=3048867)[0;0m INFO 09-12 02:26:45 [multiproc_executor.py:520] Parent process exited, terminating worker
[1;36m(VllmWorker TP1 pid=3048866)[0;0m INFO 09-12 02:26:45 [multiproc_executor.py:520] Parent process exited, terminating worker
[1;36m(VllmWorker TP3 pid=3048868)[0;0m INFO 09-12 02:26:45 [multiproc_executor.py:520] Parent process exited, terminating worker
Saving judge results to: MathVista_judge_results.jsonl
Judge results saved to: MathVista_judge_results.jsonl

=== Judge Evaluation Results ===
Total samples: 999
Correct judgments: 0
Accuracy: 0.0000 (0.00%)
Metrics saved to: MathVista_judge_results_metrics.json
